
---------- Begin Simulation Statistics ----------
final_tick                                   29096000                       # Number of ticks from beginning of simulation (restored from checkpoints and never reset)
host_inst_rate                                 360721                       # Simulator instruction rate (inst/s)
host_mem_usage                                 651336                       # Number of bytes of host memory used
host_op_rate                                   415270                       # Simulator op (including micro ops) rate (op/s)
host_seconds                                     0.01                       # Real time elapsed on the host
host_tick_rate                             2091756627                       # Simulator tick rate (ticks/s)
sim_freq                                 1000000000000                       # Frequency of simulated ticks
sim_insts                                        4988                       # Number of instructions simulated
sim_ops                                          5770                       # Number of ops (including micro ops) simulated
sim_seconds                                  0.000029                       # Number of seconds simulated
sim_ticks                                    29096000                       # Number of ticks simulated
system.cpu.Branches                              1107                       # Number of branches fetched
system.cpu.committedInsts                        4988                       # Number of instructions committed
system.cpu.committedOps                          5770                       # Number of ops (including micro ops) committed
system.cpu.idle_fraction                     0.000000                       # Percentage of idle cycles
system.cpu.not_idle_fraction                 1.000000                       # Percentage of non-idle cycles
system.cpu.numCycles                            58192                       # number of cpu cycles simulated
system.cpu.numWorkItemsCompleted                    0                       # number of work items this cpu completed
system.cpu.numWorkItemsStarted                      0                       # number of work items this cpu started
system.cpu.num_busy_cycles               58191.998000                       # Number of busy cycles
system.cpu.num_cc_register_reads                20690                       # number of times the CC registers were read
system.cpu.num_cc_register_writes                2647                       # number of times the CC registers were written
system.cpu.num_conditional_control_insts          800                       # number of instructions that are conditional controls
system.cpu.num_fp_alu_accesses                      0                       # Number of float alu accesses
system.cpu.num_fp_insts                             0                       # number of float instructions
system.cpu.num_fp_register_reads                    0                       # number of times the floating registers were read
system.cpu.num_fp_register_writes                   0                       # number of times the floating registers were written
system.cpu.num_func_calls                         215                       # number of times a function call or return occured
system.cpu.num_idle_cycles                   0.002000                       # Number of idle cycles
system.cpu.num_int_alu_accesses                  4980                       # Number of integer alu accesses
system.cpu.num_int_insts                         4980                       # number of integer instructions
system.cpu.num_int_register_reads                7962                       # number of times the integer registers were read
system.cpu.num_int_register_writes               3014                       # number of times the integer registers were written
system.cpu.num_load_insts                        1085                       # Number of load instructions
system.cpu.num_mem_refs                          2038                       # number of memory refs
system.cpu.num_store_insts                        953                       # Number of store instructions
system.cpu.num_vec_alu_accesses                     0                       # Number of vector alu accesses
system.cpu.num_vec_insts                            0                       # number of vector instructions
system.cpu.num_vec_register_reads                  16                       # number of times the vector registers were read
system.cpu.num_vec_register_writes                  0                       # number of times the vector registers were written
system.cpu.op_class::No_OpClass                     0      0.00%      0.00% # Class of executed instruction
system.cpu.op_class::IntAlu                      3789     64.95%     64.95% # Class of executed instruction
system.cpu.op_class::IntMult                        4      0.07%     65.02% # Class of executed instruction
system.cpu.op_class::IntDiv                         0      0.00%     65.02% # Class of executed instruction
system.cpu.op_class::FloatAdd                       0      0.00%     65.02% # Class of executed instruction
system.cpu.op_class::FloatCmp                       0      0.00%     65.02% # Class of executed instruction
system.cpu.op_class::FloatCvt                       0      0.00%     65.02% # Class of executed instruction
system.cpu.op_class::FloatMult                      0      0.00%     65.02% # Class of executed instruction
system.cpu.op_class::FloatMultAcc                   0      0.00%     65.02% # Class of executed instruction
system.cpu.op_class::FloatDiv                       0      0.00%     65.02% # Class of executed instruction
system.cpu.op_class::FloatMisc                      0      0.00%     65.02% # Class of executed instruction
system.cpu.op_class::FloatSqrt                      0      0.00%     65.02% # Class of executed instruction
system.cpu.op_class::SimdAdd                        0      0.00%     65.02% # Class of executed instruction
system.cpu.op_class::SimdAddAcc                     0      0.00%     65.02% # Class of executed instruction
system.cpu.op_class::SimdAlu                        0      0.00%     65.02% # Class of executed instruction
system.cpu.op_class::SimdCmp                        0      0.00%     65.02% # Class of executed instruction
system.cpu.op_class::SimdCvt                        0      0.00%     65.02% # Class of executed instruction
system.cpu.op_class::SimdMisc                       0      0.00%     65.02% # Class of executed instruction
system.cpu.op_class::SimdMult                       0      0.00%     65.02% # Class of executed instruction
system.cpu.op_class::SimdMultAcc                    0      0.00%     65.02% # Class of executed instruction
system.cpu.op_class::SimdShift                      0      0.00%     65.02% # Class of executed instruction
system.cpu.op_class::SimdShiftAcc                   0      0.00%     65.02% # Class of executed instruction
system.cpu.op_class::SimdDiv                        0      0.00%     65.02% # Class of executed instruction
system.cpu.op_class::SimdSqrt                       0      0.00%     65.02% # Class of executed instruction
system.cpu.op_class::SimdFloatAdd                   0      0.00%     65.02% # Class of executed instruction
system.cpu.op_class::SimdFloatAlu                   0      0.00%     65.02% # Class of executed instruction
system.cpu.op_class::SimdFloatCmp                   0      0.00%     65.02% # Class of executed instruction
system.cpu.op_class::SimdFloatCvt                   0      0.00%     65.02% # Class of executed instruction
system.cpu.op_class::SimdFloatDiv                   0      0.00%     65.02% # Class of executed instruction
system.cpu.op_class::SimdFloatMisc                  3      0.05%     65.07% # Class of executed instruction
system.cpu.op_class::SimdFloatMult                  0      0.00%     65.07% # Class of executed instruction
system.cpu.op_class::SimdFloatMultAcc               0      0.00%     65.07% # Class of executed instruction
system.cpu.op_class::SimdFloatSqrt                  0      0.00%     65.07% # Class of executed instruction
system.cpu.op_class::SimdReduceAdd                  0      0.00%     65.07% # Class of executed instruction
system.cpu.op_class::SimdReduceAlu                  0      0.00%     65.07% # Class of executed instruction
system.cpu.op_class::SimdReduceCmp                  0      0.00%     65.07% # Class of executed instruction
system.cpu.op_class::SimdFloatReduceAdd             0      0.00%     65.07% # Class of executed instruction
system.cpu.op_class::SimdFloatReduceCmp             0      0.00%     65.07% # Class of executed instruction
system.cpu.op_class::SimdAes                        0      0.00%     65.07% # Class of executed instruction
system.cpu.op_class::SimdAesMix                     0      0.00%     65.07% # Class of executed instruction
system.cpu.op_class::SimdSha1Hash                   0      0.00%     65.07% # Class of executed instruction
system.cpu.op_class::SimdSha1Hash2                  0      0.00%     65.07% # Class of executed instruction
system.cpu.op_class::SimdSha256Hash                 0      0.00%     65.07% # Class of executed instruction
system.cpu.op_class::SimdSha256Hash2                0      0.00%     65.07% # Class of executed instruction
system.cpu.op_class::SimdShaSigma2                  0      0.00%     65.07% # Class of executed instruction
system.cpu.op_class::SimdShaSigma3                  0      0.00%     65.07% # Class of executed instruction
system.cpu.op_class::SimdPredAlu                    0      0.00%     65.07% # Class of executed instruction
system.cpu.op_class::MemRead                     1085     18.60%     83.66% # Class of executed instruction
system.cpu.op_class::MemWrite                     953     16.34%    100.00% # Class of executed instruction
system.cpu.op_class::FloatMemRead                   0      0.00%    100.00% # Class of executed instruction
system.cpu.op_class::FloatMemWrite                  0      0.00%    100.00% # Class of executed instruction
system.cpu.op_class::IprAccess                      0      0.00%    100.00% # Class of executed instruction
system.cpu.op_class::InstPrefetch                   0      0.00%    100.00% # Class of executed instruction
system.cpu.op_class::total                       5834                       # Class of executed instruction
system.cpu.workload.numSyscalls                    13                       # Number of system calls
system.membus.snoop_filter.hit_multi_requests           10                       # Number of requests hitting in the snoop filter with multiple (>1) holders of the requested data.
system.membus.snoop_filter.hit_multi_snoops            0                       # Number of snoops hitting in the snoop filter with multiple (>1) holders of the requested data.
system.membus.snoop_filter.hit_single_requests           94                       # Number of requests hitting in the snoop filter with a single holder of the requested data.
system.membus.snoop_filter.hit_single_snoops            0                       # Number of snoops hitting in the snoop filter with a single holder of the requested data.
system.membus.snoop_filter.tot_requests           461                       # Total number of requests made to the snoop filter.
system.membus.snoop_filter.tot_snoops               0                       # Total number of snoops made to the snoop filter.
system.clk_domain.clock                          1000                       # Clock period in ticks
system.cpu.dcache.demand_hits::.cpu.data         1833                       # number of demand (read+write) hits
system.cpu.dcache.demand_hits::total             1833                       # number of demand (read+write) hits
system.cpu.dcache.overall_hits::.cpu.data         1833                       # number of overall hits
system.cpu.dcache.overall_hits::total            1833                       # number of overall hits
system.cpu.dcache.demand_misses::.cpu.data          142                       # number of demand (read+write) misses
system.cpu.dcache.demand_misses::total            142                       # number of demand (read+write) misses
system.cpu.dcache.overall_misses::.cpu.data          142                       # number of overall misses
system.cpu.dcache.overall_misses::total           142                       # number of overall misses
system.cpu.dcache.demand_miss_latency::.cpu.data      7585000                       # number of demand (read+write) miss cycles
system.cpu.dcache.demand_miss_latency::total      7585000                       # number of demand (read+write) miss cycles
system.cpu.dcache.overall_miss_latency::.cpu.data      7585000                       # number of overall miss cycles
system.cpu.dcache.overall_miss_latency::total      7585000                       # number of overall miss cycles
system.cpu.dcache.demand_accesses::.cpu.data         1975                       # number of demand (read+write) accesses
system.cpu.dcache.demand_accesses::total         1975                       # number of demand (read+write) accesses
system.cpu.dcache.overall_accesses::.cpu.data         1975                       # number of overall (read+write) accesses
system.cpu.dcache.overall_accesses::total         1975                       # number of overall (read+write) accesses
system.cpu.dcache.demand_miss_rate::.cpu.data     0.071899                       # miss rate for demand accesses
system.cpu.dcache.demand_miss_rate::total     0.071899                       # miss rate for demand accesses
system.cpu.dcache.overall_miss_rate::.cpu.data     0.071899                       # miss rate for overall accesses
system.cpu.dcache.overall_miss_rate::total     0.071899                       # miss rate for overall accesses
system.cpu.dcache.demand_avg_miss_latency::.cpu.data 53415.492958                       # average overall miss latency
system.cpu.dcache.demand_avg_miss_latency::total 53415.492958                       # average overall miss latency
system.cpu.dcache.overall_avg_miss_latency::.cpu.data 53415.492958                       # average overall miss latency
system.cpu.dcache.overall_avg_miss_latency::total 53415.492958                       # average overall miss latency
system.cpu.dcache.blocked_cycles::no_mshrs            0                       # number of cycles access was blocked
system.cpu.dcache.blocked_cycles::no_targets            0                       # number of cycles access was blocked
system.cpu.dcache.blocked::no_mshrs                 0                       # number of cycles access was blocked
system.cpu.dcache.blocked::no_targets               0                       # number of cycles access was blocked
system.cpu.dcache.avg_blocked_cycles::no_mshrs          nan                       # average number of cycles each access was blocked
system.cpu.dcache.avg_blocked_cycles::no_targets          nan                       # average number of cycles each access was blocked
system.cpu.dcache.demand_mshr_misses::.cpu.data          142                       # number of demand (read+write) MSHR misses
system.cpu.dcache.demand_mshr_misses::total          142                       # number of demand (read+write) MSHR misses
system.cpu.dcache.overall_mshr_misses::.cpu.data          142                       # number of overall MSHR misses
system.cpu.dcache.overall_mshr_misses::total          142                       # number of overall MSHR misses
system.cpu.dcache.demand_mshr_miss_latency::.cpu.data      7443000                       # number of demand (read+write) MSHR miss cycles
system.cpu.dcache.demand_mshr_miss_latency::total      7443000                       # number of demand (read+write) MSHR miss cycles
system.cpu.dcache.overall_mshr_miss_latency::.cpu.data      7443000                       # number of overall MSHR miss cycles
system.cpu.dcache.overall_mshr_miss_latency::total      7443000                       # number of overall MSHR miss cycles
system.cpu.dcache.demand_mshr_miss_rate::.cpu.data     0.071899                       # mshr miss rate for demand accesses
system.cpu.dcache.demand_mshr_miss_rate::total     0.071899                       # mshr miss rate for demand accesses
system.cpu.dcache.overall_mshr_miss_rate::.cpu.data     0.071899                       # mshr miss rate for overall accesses
system.cpu.dcache.overall_mshr_miss_rate::total     0.071899                       # mshr miss rate for overall accesses
system.cpu.dcache.demand_avg_mshr_miss_latency::.cpu.data 52415.492958                       # average overall mshr miss latency
system.cpu.dcache.demand_avg_mshr_miss_latency::total 52415.492958                       # average overall mshr miss latency
system.cpu.dcache.overall_avg_mshr_miss_latency::.cpu.data 52415.492958                       # average overall mshr miss latency
system.cpu.dcache.overall_avg_mshr_miss_latency::total 52415.492958                       # average overall mshr miss latency
system.cpu.dcache.replacements                      0                       # number of replacements
system.cpu.dcache.ReadReq_hits::.cpu.data          951                       # number of ReadReq hits
system.cpu.dcache.ReadReq_hits::total             951                       # number of ReadReq hits
system.cpu.dcache.ReadReq_misses::.cpu.data           99                       # number of ReadReq misses
system.cpu.dcache.ReadReq_misses::total            99                       # number of ReadReq misses
system.cpu.dcache.ReadReq_miss_latency::.cpu.data      5294000                       # number of ReadReq miss cycles
system.cpu.dcache.ReadReq_miss_latency::total      5294000                       # number of ReadReq miss cycles
system.cpu.dcache.ReadReq_accesses::.cpu.data         1050                       # number of ReadReq accesses(hits+misses)
system.cpu.dcache.ReadReq_accesses::total         1050                       # number of ReadReq accesses(hits+misses)
system.cpu.dcache.ReadReq_miss_rate::.cpu.data     0.094286                       # miss rate for ReadReq accesses
system.cpu.dcache.ReadReq_miss_rate::total     0.094286                       # miss rate for ReadReq accesses
system.cpu.dcache.ReadReq_avg_miss_latency::.cpu.data 53474.747475                       # average ReadReq miss latency
system.cpu.dcache.ReadReq_avg_miss_latency::total 53474.747475                       # average ReadReq miss latency
system.cpu.dcache.ReadReq_mshr_misses::.cpu.data           99                       # number of ReadReq MSHR misses
system.cpu.dcache.ReadReq_mshr_misses::total           99                       # number of ReadReq MSHR misses
system.cpu.dcache.ReadReq_mshr_miss_latency::.cpu.data      5195000                       # number of ReadReq MSHR miss cycles
system.cpu.dcache.ReadReq_mshr_miss_latency::total      5195000                       # number of ReadReq MSHR miss cycles
system.cpu.dcache.ReadReq_mshr_miss_rate::.cpu.data     0.094286                       # mshr miss rate for ReadReq accesses
system.cpu.dcache.ReadReq_mshr_miss_rate::total     0.094286                       # mshr miss rate for ReadReq accesses
system.cpu.dcache.ReadReq_avg_mshr_miss_latency::.cpu.data 52474.747475                       # average ReadReq mshr miss latency
system.cpu.dcache.ReadReq_avg_mshr_miss_latency::total 52474.747475                       # average ReadReq mshr miss latency
system.cpu.dcache.WriteReq_hits::.cpu.data          882                       # number of WriteReq hits
system.cpu.dcache.WriteReq_hits::total            882                       # number of WriteReq hits
system.cpu.dcache.WriteReq_misses::.cpu.data           43                       # number of WriteReq misses
system.cpu.dcache.WriteReq_misses::total           43                       # number of WriteReq misses
system.cpu.dcache.WriteReq_miss_latency::.cpu.data      2291000                       # number of WriteReq miss cycles
system.cpu.dcache.WriteReq_miss_latency::total      2291000                       # number of WriteReq miss cycles
system.cpu.dcache.WriteReq_accesses::.cpu.data          925                       # number of WriteReq accesses(hits+misses)
system.cpu.dcache.WriteReq_accesses::total          925                       # number of WriteReq accesses(hits+misses)
system.cpu.dcache.WriteReq_miss_rate::.cpu.data     0.046486                       # miss rate for WriteReq accesses
system.cpu.dcache.WriteReq_miss_rate::total     0.046486                       # miss rate for WriteReq accesses
system.cpu.dcache.WriteReq_avg_miss_latency::.cpu.data 53279.069767                       # average WriteReq miss latency
system.cpu.dcache.WriteReq_avg_miss_latency::total 53279.069767                       # average WriteReq miss latency
system.cpu.dcache.WriteReq_mshr_misses::.cpu.data           43                       # number of WriteReq MSHR misses
system.cpu.dcache.WriteReq_mshr_misses::total           43                       # number of WriteReq MSHR misses
system.cpu.dcache.WriteReq_mshr_miss_latency::.cpu.data      2248000                       # number of WriteReq MSHR miss cycles
system.cpu.dcache.WriteReq_mshr_miss_latency::total      2248000                       # number of WriteReq MSHR miss cycles
system.cpu.dcache.WriteReq_mshr_miss_rate::.cpu.data     0.046486                       # mshr miss rate for WriteReq accesses
system.cpu.dcache.WriteReq_mshr_miss_rate::total     0.046486                       # mshr miss rate for WriteReq accesses
system.cpu.dcache.WriteReq_avg_mshr_miss_latency::.cpu.data 52279.069767                       # average WriteReq mshr miss latency
system.cpu.dcache.WriteReq_avg_mshr_miss_latency::total 52279.069767                       # average WriteReq mshr miss latency
system.cpu.dcache.LoadLockedReq_hits::.cpu.data           11                       # number of LoadLockedReq hits
system.cpu.dcache.LoadLockedReq_hits::total           11                       # number of LoadLockedReq hits
system.cpu.dcache.LoadLockedReq_accesses::.cpu.data           11                       # number of LoadLockedReq accesses(hits+misses)
system.cpu.dcache.LoadLockedReq_accesses::total           11                       # number of LoadLockedReq accesses(hits+misses)
system.cpu.dcache.StoreCondReq_hits::.cpu.data           11                       # number of StoreCondReq hits
system.cpu.dcache.StoreCondReq_hits::total           11                       # number of StoreCondReq hits
system.cpu.dcache.StoreCondReq_accesses::.cpu.data           11                       # number of StoreCondReq accesses(hits+misses)
system.cpu.dcache.StoreCondReq_accesses::total           11                       # number of StoreCondReq accesses(hits+misses)
system.cpu.dcache.power_state.pwrStateResidencyTicks::UNDEFINED     29096000                       # Cumulative time (in ticks) in various power states
system.cpu.dcache.tags.tagsinuse            84.527085                       # Cycle average of tags in use
system.cpu.dcache.tags.total_refs                1997                       # Total number of references to valid blocks.
system.cpu.dcache.tags.sampled_refs               142                       # Sample count of references to valid blocks.
system.cpu.dcache.tags.avg_refs             14.063380                       # Average number of references to valid blocks.
system.cpu.dcache.tags.warmup_cycle            129000                       # Cycle when the warmup percentage was hit.
system.cpu.dcache.tags.occ_blocks::.cpu.data    84.527085                       # Average occupied blocks per requestor
system.cpu.dcache.tags.occ_percent::.cpu.data     0.082546                       # Average percentage of cache occupancy
system.cpu.dcache.tags.occ_percent::total     0.082546                       # Average percentage of cache occupancy
system.cpu.dcache.tags.occ_task_id_blocks::1024          142                       # Occupied blocks per task id
system.cpu.dcache.tags.age_task_id_blocks_1024::0           36                       # Occupied blocks per task id
system.cpu.dcache.tags.age_task_id_blocks_1024::1          106                       # Occupied blocks per task id
system.cpu.dcache.tags.occ_task_id_percent::1024     0.138672                       # Percentage of cache occupancy per task id
system.cpu.dcache.tags.tag_accesses              4136                       # Number of tag accesses
system.cpu.dcache.tags.data_accesses             4136                       # Number of data accesses
system.cpu.dcache.tags.power_state.pwrStateResidencyTicks::UNDEFINED     29096000                       # Cumulative time (in ticks) in various power states
system.cpu.dtb.instHits                             0                       # ITB inst hits
system.cpu.dtb.instMisses                           0                       # ITB inst misses
system.cpu.dtb.readHits                             0                       # DTB read hits
system.cpu.dtb.readMisses                           0                       # DTB read misses
system.cpu.dtb.writeHits                            0                       # DTB write hits
system.cpu.dtb.writeMisses                          0                       # DTB write misses
system.cpu.dtb.inserts                              0                       # Number of times an entry is inserted into the TLB
system.cpu.dtb.flushTlb                             0                       # Number of times complete TLB was flushed
system.cpu.dtb.flushTlbMva                          0                       # Number of times TLB was flushed by MVA
system.cpu.dtb.flushTlbMvaAsid                      0                       # Number of times TLB was flushed by MVA & ASID
system.cpu.dtb.flushTlbAsid                         0                       # Number of times TLB was flushed by ASID
system.cpu.dtb.flushedEntries                       0                       # Number of entries that have been flushed from TLB
system.cpu.dtb.alignFaults                          0                       # Number of TLB faults due to alignment restrictions
system.cpu.dtb.prefetchFaults                       0                       # Number of TLB faults due to prefetch
system.cpu.dtb.domainFaults                         0                       # Number of TLB faults due to domain restrictions
system.cpu.dtb.permsFaults                          0                       # Number of TLB faults due to permissions restrictions
system.cpu.dtb.readAccesses                         0                       # DTB read accesses
system.cpu.dtb.writeAccesses                        0                       # DTB write accesses
system.cpu.dtb.instAccesses                         0                       # ITB inst accesses
system.cpu.dtb.hits                                 0                       # Total TLB (inst and data) hits
system.cpu.dtb.misses                               0                       # Total TLB (inst and data) misses
system.cpu.dtb.accesses                             0                       # Total TLB (inst and data) accesses
system.cpu.dtb.stage2_mmu.stage2_tlb.instHits            0                       # ITB inst hits
system.cpu.dtb.stage2_mmu.stage2_tlb.instMisses            0                       # ITB inst misses
system.cpu.dtb.stage2_mmu.stage2_tlb.readHits            0                       # DTB read hits
system.cpu.dtb.stage2_mmu.stage2_tlb.readMisses            0                       # DTB read misses
system.cpu.dtb.stage2_mmu.stage2_tlb.writeHits            0                       # DTB write hits
system.cpu.dtb.stage2_mmu.stage2_tlb.writeMisses            0                       # DTB write misses
system.cpu.dtb.stage2_mmu.stage2_tlb.inserts            0                       # Number of times an entry is inserted into the TLB
system.cpu.dtb.stage2_mmu.stage2_tlb.flushTlb            0                       # Number of times complete TLB was flushed
system.cpu.dtb.stage2_mmu.stage2_tlb.flushTlbMva            0                       # Number of times TLB was flushed by MVA
system.cpu.dtb.stage2_mmu.stage2_tlb.flushTlbMvaAsid            0                       # Number of times TLB was flushed by MVA & ASID
system.cpu.dtb.stage2_mmu.stage2_tlb.flushTlbAsid            0                       # Number of times TLB was flushed by ASID
system.cpu.dtb.stage2_mmu.stage2_tlb.flushedEntries            0                       # Number of entries that have been flushed from TLB
system.cpu.dtb.stage2_mmu.stage2_tlb.alignFaults            0                       # Number of TLB faults due to alignment restrictions
system.cpu.dtb.stage2_mmu.stage2_tlb.prefetchFaults            0                       # Number of TLB faults due to prefetch
system.cpu.dtb.stage2_mmu.stage2_tlb.domainFaults            0                       # Number of TLB faults due to domain restrictions
system.cpu.dtb.stage2_mmu.stage2_tlb.permsFaults            0                       # Number of TLB faults due to permissions restrictions
system.cpu.dtb.stage2_mmu.stage2_tlb.readAccesses            0                       # DTB read accesses
system.cpu.dtb.stage2_mmu.stage2_tlb.writeAccesses            0                       # DTB write accesses
system.cpu.dtb.stage2_mmu.stage2_tlb.instAccesses            0                       # ITB inst accesses
system.cpu.dtb.stage2_mmu.stage2_tlb.hits            0                       # Total TLB (inst and data) hits
system.cpu.dtb.stage2_mmu.stage2_tlb.misses            0                       # Total TLB (inst and data) misses
system.cpu.dtb.stage2_mmu.stage2_tlb.accesses            0                       # Total TLB (inst and data) accesses
system.cpu.dtb.stage2_mmu.stage2_tlb.walker.walks            0                       # Table walker walks requested
system.cpu.dtb.stage2_mmu.stage2_tlb.walker.requestOrigin_Requested::Data            0                       # Table walker requests started/completed, data/inst
system.cpu.dtb.stage2_mmu.stage2_tlb.walker.requestOrigin_Requested::Inst            0                       # Table walker requests started/completed, data/inst
system.cpu.dtb.stage2_mmu.stage2_tlb.walker.requestOrigin_Requested::total            0                       # Table walker requests started/completed, data/inst
system.cpu.dtb.stage2_mmu.stage2_tlb.walker.requestOrigin_Completed::Data            0                       # Table walker requests started/completed, data/inst
system.cpu.dtb.stage2_mmu.stage2_tlb.walker.requestOrigin_Completed::Inst            0                       # Table walker requests started/completed, data/inst
system.cpu.dtb.stage2_mmu.stage2_tlb.walker.requestOrigin_Completed::total            0                       # Table walker requests started/completed, data/inst
system.cpu.dtb.stage2_mmu.stage2_tlb.walker.requestOrigin::total            0                       # Table walker requests started/completed, data/inst
system.cpu.dtb.stage2_mmu.stage2_tlb.walker.power_state.pwrStateResidencyTicks::UNDEFINED     29096000                       # Cumulative time (in ticks) in various power states
system.cpu.dtb.walker.walks                         0                       # Table walker walks requested
system.cpu.dtb.walker.requestOrigin_Requested::Data            0                       # Table walker requests started/completed, data/inst
system.cpu.dtb.walker.requestOrigin_Requested::Inst            0                       # Table walker requests started/completed, data/inst
system.cpu.dtb.walker.requestOrigin_Requested::total            0                       # Table walker requests started/completed, data/inst
system.cpu.dtb.walker.requestOrigin_Completed::Data            0                       # Table walker requests started/completed, data/inst
system.cpu.dtb.walker.requestOrigin_Completed::Inst            0                       # Table walker requests started/completed, data/inst
system.cpu.dtb.walker.requestOrigin_Completed::total            0                       # Table walker requests started/completed, data/inst
system.cpu.dtb.walker.requestOrigin::total            0                       # Table walker requests started/completed, data/inst
system.cpu.dtb.walker.power_state.pwrStateResidencyTicks::UNDEFINED     29096000                       # Cumulative time (in ticks) in various power states
system.cpu.icache.demand_hits::.cpu.inst         4781                       # number of demand (read+write) hits
system.cpu.icache.demand_hits::total             4781                       # number of demand (read+write) hits
system.cpu.icache.overall_hits::.cpu.inst         4781                       # number of overall hits
system.cpu.icache.overall_hits::total            4781                       # number of overall hits
system.cpu.icache.demand_misses::.cpu.inst          249                       # number of demand (read+write) misses
system.cpu.icache.demand_misses::total            249                       # number of demand (read+write) misses
system.cpu.icache.overall_misses::.cpu.inst          249                       # number of overall misses
system.cpu.icache.overall_misses::total           249                       # number of overall misses
system.cpu.icache.demand_miss_latency::.cpu.inst     14204000                       # number of demand (read+write) miss cycles
system.cpu.icache.demand_miss_latency::total     14204000                       # number of demand (read+write) miss cycles
system.cpu.icache.overall_miss_latency::.cpu.inst     14204000                       # number of overall miss cycles
system.cpu.icache.overall_miss_latency::total     14204000                       # number of overall miss cycles
system.cpu.icache.demand_accesses::.cpu.inst         5030                       # number of demand (read+write) accesses
system.cpu.icache.demand_accesses::total         5030                       # number of demand (read+write) accesses
system.cpu.icache.overall_accesses::.cpu.inst         5030                       # number of overall (read+write) accesses
system.cpu.icache.overall_accesses::total         5030                       # number of overall (read+write) accesses
system.cpu.icache.demand_miss_rate::.cpu.inst     0.049503                       # miss rate for demand accesses
system.cpu.icache.demand_miss_rate::total     0.049503                       # miss rate for demand accesses
system.cpu.icache.overall_miss_rate::.cpu.inst     0.049503                       # miss rate for overall accesses
system.cpu.icache.overall_miss_rate::total     0.049503                       # miss rate for overall accesses
system.cpu.icache.demand_avg_miss_latency::.cpu.inst 57044.176707                       # average overall miss latency
system.cpu.icache.demand_avg_miss_latency::total 57044.176707                       # average overall miss latency
system.cpu.icache.overall_avg_miss_latency::.cpu.inst 57044.176707                       # average overall miss latency
system.cpu.icache.overall_avg_miss_latency::total 57044.176707                       # average overall miss latency
system.cpu.icache.blocked_cycles::no_mshrs            0                       # number of cycles access was blocked
system.cpu.icache.blocked_cycles::no_targets            0                       # number of cycles access was blocked
system.cpu.icache.blocked::no_mshrs                 0                       # number of cycles access was blocked
system.cpu.icache.blocked::no_targets               0                       # number of cycles access was blocked
system.cpu.icache.avg_blocked_cycles::no_mshrs          nan                       # average number of cycles each access was blocked
system.cpu.icache.avg_blocked_cycles::no_targets          nan                       # average number of cycles each access was blocked
system.cpu.icache.writebacks::.writebacks           70                       # number of writebacks
system.cpu.icache.writebacks::total                70                       # number of writebacks
system.cpu.icache.demand_mshr_misses::.cpu.inst          249                       # number of demand (read+write) MSHR misses
system.cpu.icache.demand_mshr_misses::total          249                       # number of demand (read+write) MSHR misses
system.cpu.icache.overall_mshr_misses::.cpu.inst          249                       # number of overall MSHR misses
system.cpu.icache.overall_mshr_misses::total          249                       # number of overall MSHR misses
system.cpu.icache.demand_mshr_miss_latency::.cpu.inst     13955000                       # number of demand (read+write) MSHR miss cycles
system.cpu.icache.demand_mshr_miss_latency::total     13955000                       # number of demand (read+write) MSHR miss cycles
system.cpu.icache.overall_mshr_miss_latency::.cpu.inst     13955000                       # number of overall MSHR miss cycles
system.cpu.icache.overall_mshr_miss_latency::total     13955000                       # number of overall MSHR miss cycles
system.cpu.icache.demand_mshr_miss_rate::.cpu.inst     0.049503                       # mshr miss rate for demand accesses
system.cpu.icache.demand_mshr_miss_rate::total     0.049503                       # mshr miss rate for demand accesses
system.cpu.icache.overall_mshr_miss_rate::.cpu.inst     0.049503                       # mshr miss rate for overall accesses
system.cpu.icache.overall_mshr_miss_rate::total     0.049503                       # mshr miss rate for overall accesses
system.cpu.icache.demand_avg_mshr_miss_latency::.cpu.inst 56044.176707                       # average overall mshr miss latency
system.cpu.icache.demand_avg_mshr_miss_latency::total 56044.176707                       # average overall mshr miss latency
system.cpu.icache.overall_avg_mshr_miss_latency::.cpu.inst 56044.176707                       # average overall mshr miss latency
system.cpu.icache.overall_avg_mshr_miss_latency::total 56044.176707                       # average overall mshr miss latency
system.cpu.icache.replacements                     70                       # number of replacements
system.cpu.icache.ReadReq_hits::.cpu.inst         4781                       # number of ReadReq hits
system.cpu.icache.ReadReq_hits::total            4781                       # number of ReadReq hits
system.cpu.icache.ReadReq_misses::.cpu.inst          249                       # number of ReadReq misses
system.cpu.icache.ReadReq_misses::total           249                       # number of ReadReq misses
system.cpu.icache.ReadReq_miss_latency::.cpu.inst     14204000                       # number of ReadReq miss cycles
system.cpu.icache.ReadReq_miss_latency::total     14204000                       # number of ReadReq miss cycles
system.cpu.icache.ReadReq_accesses::.cpu.inst         5030                       # number of ReadReq accesses(hits+misses)
system.cpu.icache.ReadReq_accesses::total         5030                       # number of ReadReq accesses(hits+misses)
system.cpu.icache.ReadReq_miss_rate::.cpu.inst     0.049503                       # miss rate for ReadReq accesses
system.cpu.icache.ReadReq_miss_rate::total     0.049503                       # miss rate for ReadReq accesses
system.cpu.icache.ReadReq_avg_miss_latency::.cpu.inst 57044.176707                       # average ReadReq miss latency
system.cpu.icache.ReadReq_avg_miss_latency::total 57044.176707                       # average ReadReq miss latency
system.cpu.icache.ReadReq_mshr_misses::.cpu.inst          249                       # number of ReadReq MSHR misses
system.cpu.icache.ReadReq_mshr_misses::total          249                       # number of ReadReq MSHR misses
system.cpu.icache.ReadReq_mshr_miss_latency::.cpu.inst     13955000                       # number of ReadReq MSHR miss cycles
system.cpu.icache.ReadReq_mshr_miss_latency::total     13955000                       # number of ReadReq MSHR miss cycles
system.cpu.icache.ReadReq_mshr_miss_rate::.cpu.inst     0.049503                       # mshr miss rate for ReadReq accesses
system.cpu.icache.ReadReq_mshr_miss_rate::total     0.049503                       # mshr miss rate for ReadReq accesses
system.cpu.icache.ReadReq_avg_mshr_miss_latency::.cpu.inst 56044.176707                       # average ReadReq mshr miss latency
system.cpu.icache.ReadReq_avg_mshr_miss_latency::total 56044.176707                       # average ReadReq mshr miss latency
system.cpu.icache.power_state.pwrStateResidencyTicks::UNDEFINED     29096000                       # Cumulative time (in ticks) in various power states
system.cpu.icache.tags.tagsinuse            97.102251                       # Cycle average of tags in use
system.cpu.icache.tags.total_refs                5030                       # Total number of references to valid blocks.
system.cpu.icache.tags.sampled_refs               249                       # Sample count of references to valid blocks.
system.cpu.icache.tags.avg_refs             20.200803                       # Average number of references to valid blocks.
system.cpu.icache.tags.warmup_cycle             77000                       # Cycle when the warmup percentage was hit.
system.cpu.icache.tags.occ_blocks::.cpu.inst    97.102251                       # Average occupied blocks per requestor
system.cpu.icache.tags.occ_percent::.cpu.inst     0.379306                       # Average percentage of cache occupancy
system.cpu.icache.tags.occ_percent::total     0.379306                       # Average percentage of cache occupancy
system.cpu.icache.tags.occ_task_id_blocks::1024          179                       # Occupied blocks per task id
system.cpu.icache.tags.age_task_id_blocks_1024::0           92                       # Occupied blocks per task id
system.cpu.icache.tags.age_task_id_blocks_1024::1           87                       # Occupied blocks per task id
system.cpu.icache.tags.occ_task_id_percent::1024     0.699219                       # Percentage of cache occupancy per task id
system.cpu.icache.tags.tag_accesses             10309                       # Number of tag accesses
system.cpu.icache.tags.data_accesses            10309                       # Number of data accesses
system.cpu.icache.tags.power_state.pwrStateResidencyTicks::UNDEFINED     29096000                       # Cumulative time (in ticks) in various power states
system.cpu.itb.instHits                             0                       # ITB inst hits
system.cpu.itb.instMisses                           0                       # ITB inst misses
system.cpu.itb.readHits                             0                       # DTB read hits
system.cpu.itb.readMisses                           0                       # DTB read misses
system.cpu.itb.writeHits                            0                       # DTB write hits
system.cpu.itb.writeMisses                          0                       # DTB write misses
system.cpu.itb.inserts                              0                       # Number of times an entry is inserted into the TLB
system.cpu.itb.flushTlb                             0                       # Number of times complete TLB was flushed
system.cpu.itb.flushTlbMva                          0                       # Number of times TLB was flushed by MVA
system.cpu.itb.flushTlbMvaAsid                      0                       # Number of times TLB was flushed by MVA & ASID
system.cpu.itb.flushTlbAsid                         0                       # Number of times TLB was flushed by ASID
system.cpu.itb.flushedEntries                       0                       # Number of entries that have been flushed from TLB
system.cpu.itb.alignFaults                          0                       # Number of TLB faults due to alignment restrictions
system.cpu.itb.prefetchFaults                       0                       # Number of TLB faults due to prefetch
system.cpu.itb.domainFaults                         0                       # Number of TLB faults due to domain restrictions
system.cpu.itb.permsFaults                          0                       # Number of TLB faults due to permissions restrictions
system.cpu.itb.readAccesses                         0                       # DTB read accesses
system.cpu.itb.writeAccesses                        0                       # DTB write accesses
system.cpu.itb.instAccesses                         0                       # ITB inst accesses
system.cpu.itb.hits                                 0                       # Total TLB (inst and data) hits
system.cpu.itb.misses                               0                       # Total TLB (inst and data) misses
system.cpu.itb.accesses                             0                       # Total TLB (inst and data) accesses
system.cpu.itb.stage2_mmu.stage2_tlb.instHits            0                       # ITB inst hits
system.cpu.itb.stage2_mmu.stage2_tlb.instMisses            0                       # ITB inst misses
system.cpu.itb.stage2_mmu.stage2_tlb.readHits            0                       # DTB read hits
system.cpu.itb.stage2_mmu.stage2_tlb.readMisses            0                       # DTB read misses
system.cpu.itb.stage2_mmu.stage2_tlb.writeHits            0                       # DTB write hits
system.cpu.itb.stage2_mmu.stage2_tlb.writeMisses            0                       # DTB write misses
system.cpu.itb.stage2_mmu.stage2_tlb.inserts            0                       # Number of times an entry is inserted into the TLB
system.cpu.itb.stage2_mmu.stage2_tlb.flushTlb            0                       # Number of times complete TLB was flushed
system.cpu.itb.stage2_mmu.stage2_tlb.flushTlbMva            0                       # Number of times TLB was flushed by MVA
system.cpu.itb.stage2_mmu.stage2_tlb.flushTlbMvaAsid            0                       # Number of times TLB was flushed by MVA & ASID
system.cpu.itb.stage2_mmu.stage2_tlb.flushTlbAsid            0                       # Number of times TLB was flushed by ASID
system.cpu.itb.stage2_mmu.stage2_tlb.flushedEntries            0                       # Number of entries that have been flushed from TLB
system.cpu.itb.stage2_mmu.stage2_tlb.alignFaults            0                       # Number of TLB faults due to alignment restrictions
system.cpu.itb.stage2_mmu.stage2_tlb.prefetchFaults            0                       # Number of TLB faults due to prefetch
system.cpu.itb.stage2_mmu.stage2_tlb.domainFaults            0                       # Number of TLB faults due to domain restrictions
system.cpu.itb.stage2_mmu.stage2_tlb.permsFaults            0                       # Number of TLB faults due to permissions restrictions
system.cpu.itb.stage2_mmu.stage2_tlb.readAccesses            0                       # DTB read accesses
system.cpu.itb.stage2_mmu.stage2_tlb.writeAccesses            0                       # DTB write accesses
system.cpu.itb.stage2_mmu.stage2_tlb.instAccesses            0                       # ITB inst accesses
system.cpu.itb.stage2_mmu.stage2_tlb.hits            0                       # Total TLB (inst and data) hits
system.cpu.itb.stage2_mmu.stage2_tlb.misses            0                       # Total TLB (inst and data) misses
system.cpu.itb.stage2_mmu.stage2_tlb.accesses            0                       # Total TLB (inst and data) accesses
system.cpu.itb.stage2_mmu.stage2_tlb.walker.walks            0                       # Table walker walks requested
system.cpu.itb.stage2_mmu.stage2_tlb.walker.requestOrigin_Requested::Data            0                       # Table walker requests started/completed, data/inst
system.cpu.itb.stage2_mmu.stage2_tlb.walker.requestOrigin_Requested::Inst            0                       # Table walker requests started/completed, data/inst
system.cpu.itb.stage2_mmu.stage2_tlb.walker.requestOrigin_Requested::total            0                       # Table walker requests started/completed, data/inst
system.cpu.itb.stage2_mmu.stage2_tlb.walker.requestOrigin_Completed::Data            0                       # Table walker requests started/completed, data/inst
system.cpu.itb.stage2_mmu.stage2_tlb.walker.requestOrigin_Completed::Inst            0                       # Table walker requests started/completed, data/inst
system.cpu.itb.stage2_mmu.stage2_tlb.walker.requestOrigin_Completed::total            0                       # Table walker requests started/completed, data/inst
system.cpu.itb.stage2_mmu.stage2_tlb.walker.requestOrigin::total            0                       # Table walker requests started/completed, data/inst
system.cpu.itb.stage2_mmu.stage2_tlb.walker.power_state.pwrStateResidencyTicks::UNDEFINED     29096000                       # Cumulative time (in ticks) in various power states
system.cpu.itb.walker.walks                         0                       # Table walker walks requested
system.cpu.itb.walker.requestOrigin_Requested::Data            0                       # Table walker requests started/completed, data/inst
system.cpu.itb.walker.requestOrigin_Requested::Inst            0                       # Table walker requests started/completed, data/inst
system.cpu.itb.walker.requestOrigin_Requested::total            0                       # Table walker requests started/completed, data/inst
system.cpu.itb.walker.requestOrigin_Completed::Data            0                       # Table walker requests started/completed, data/inst
system.cpu.itb.walker.requestOrigin_Completed::Inst            0                       # Table walker requests started/completed, data/inst
system.cpu.itb.walker.requestOrigin_Completed::total            0                       # Table walker requests started/completed, data/inst
system.cpu.itb.walker.requestOrigin::total            0                       # Table walker requests started/completed, data/inst
system.cpu.itb.walker.power_state.pwrStateResidencyTicks::UNDEFINED     29096000                       # Cumulative time (in ticks) in various power states
system.cpu.power_state.pwrStateResidencyTicks::ON     29096000                       # Cumulative time (in ticks) in various power states
system.cpu.thread_0.numInsts                        0                       # Number of Instructions committed
system.cpu.thread_0.numOps                          0                       # Number of Ops committed
system.cpu.thread_0.numMemRefs                      0                       # Number of Memory References
system.cpu_clk_domain.clock                       500                       # Clock period in ticks
system.cpu_voltage_domain.voltage                   1                       # Voltage in Volts
system.mem_ctrls.avgPriority_.writebacks::samples        60.00                       # Average QoS priority value for accepted requests
system.mem_ctrls.avgPriority_.cpu.inst::samples       244.00                       # Average QoS priority value for accepted requests
system.mem_ctrls.avgPriority_.cpu.data::samples       140.00                       # Average QoS priority value for accepted requests
system.mem_ctrls.priorityMinLatency      0.000000018750                       # per QoS priority minimum request to response latency (s)
system.mem_ctrls.priorityMaxLatency      0.000040052750                       # per QoS priority maximum request to response latency (s)
system.mem_ctrls.numReadWriteTurnArounds            2                       # Number of turnarounds from READ to WRITE
system.mem_ctrls.numWriteReadTurnArounds            2                       # Number of turnarounds from WRITE to READ
system.mem_ctrls.numStayReadState                 832                       # Number of times bus staying in READ state
system.mem_ctrls.numStayWriteState                 30                       # Number of times bus staying in WRITE state
system.mem_ctrls.readReqs                         391                       # Number of read requests accepted
system.mem_ctrls.writeReqs                         60                       # Number of write requests accepted
system.mem_ctrls.readBursts                       391                       # Number of controller read bursts, including those serviced by the write queue
system.mem_ctrls.writeBursts                       60                       # Number of controller write bursts, including those merged in the write queue
system.mem_ctrls.servicedByWrQ                      7                       # Number of controller read bursts serviced by the write queue
system.mem_ctrls.mergedWrBursts                     0                       # Number of controller write bursts merged with an existing one
system.mem_ctrls.neitherReadNorWriteReqs            0                       # Number of requests that are neither read nor write
system.mem_ctrls.avgRdQLen                       1.00                       # Average read queue length when enqueuing
system.mem_ctrls.avgWrQLen                      14.39                       # Average write queue length when enqueuing
system.mem_ctrls.numRdRetry                         0                       # Number of times read queue was full causing retry
system.mem_ctrls.numWrRetry                         0                       # Number of times write queue was full causing retry
system.mem_ctrls.readPktSize::0                     0                       # Read request sizes (log2)
system.mem_ctrls.readPktSize::1                     0                       # Read request sizes (log2)
system.mem_ctrls.readPktSize::2                     0                       # Read request sizes (log2)
system.mem_ctrls.readPktSize::3                     0                       # Read request sizes (log2)
system.mem_ctrls.readPktSize::4                     0                       # Read request sizes (log2)
system.mem_ctrls.readPktSize::5                     0                       # Read request sizes (log2)
system.mem_ctrls.readPktSize::6                   391                       # Read request sizes (log2)
system.mem_ctrls.writePktSize::0                    0                       # Write request sizes (log2)
system.mem_ctrls.writePktSize::1                    0                       # Write request sizes (log2)
system.mem_ctrls.writePktSize::2                    0                       # Write request sizes (log2)
system.mem_ctrls.writePktSize::3                    0                       # Write request sizes (log2)
system.mem_ctrls.writePktSize::4                    0                       # Write request sizes (log2)
system.mem_ctrls.writePktSize::5                    0                       # Write request sizes (log2)
system.mem_ctrls.writePktSize::6                   60                       # Write request sizes (log2)
system.mem_ctrls.rdQLenPdf::0                     384                       # What read queue length does an incoming req see
system.mem_ctrls.rdQLenPdf::1                       0                       # What read queue length does an incoming req see
system.mem_ctrls.rdQLenPdf::2                       0                       # What read queue length does an incoming req see
system.mem_ctrls.rdQLenPdf::3                       0                       # What read queue length does an incoming req see
system.mem_ctrls.rdQLenPdf::4                       0                       # What read queue length does an incoming req see
system.mem_ctrls.rdQLenPdf::5                       0                       # What read queue length does an incoming req see
system.mem_ctrls.rdQLenPdf::6                       0                       # What read queue length does an incoming req see
system.mem_ctrls.rdQLenPdf::7                       0                       # What read queue length does an incoming req see
system.mem_ctrls.rdQLenPdf::8                       0                       # What read queue length does an incoming req see
system.mem_ctrls.rdQLenPdf::9                       0                       # What read queue length does an incoming req see
system.mem_ctrls.rdQLenPdf::10                      0                       # What read queue length does an incoming req see
system.mem_ctrls.rdQLenPdf::11                      0                       # What read queue length does an incoming req see
system.mem_ctrls.rdQLenPdf::12                      0                       # What read queue length does an incoming req see
system.mem_ctrls.rdQLenPdf::13                      0                       # What read queue length does an incoming req see
system.mem_ctrls.rdQLenPdf::14                      0                       # What read queue length does an incoming req see
system.mem_ctrls.rdQLenPdf::15                      0                       # What read queue length does an incoming req see
system.mem_ctrls.rdQLenPdf::16                      0                       # What read queue length does an incoming req see
system.mem_ctrls.rdQLenPdf::17                      0                       # What read queue length does an incoming req see
system.mem_ctrls.rdQLenPdf::18                      0                       # What read queue length does an incoming req see
system.mem_ctrls.rdQLenPdf::19                      0                       # What read queue length does an incoming req see
system.mem_ctrls.rdQLenPdf::20                      0                       # What read queue length does an incoming req see
system.mem_ctrls.rdQLenPdf::21                      0                       # What read queue length does an incoming req see
system.mem_ctrls.rdQLenPdf::22                      0                       # What read queue length does an incoming req see
system.mem_ctrls.rdQLenPdf::23                      0                       # What read queue length does an incoming req see
system.mem_ctrls.rdQLenPdf::24                      0                       # What read queue length does an incoming req see
system.mem_ctrls.rdQLenPdf::25                      0                       # What read queue length does an incoming req see
system.mem_ctrls.rdQLenPdf::26                      0                       # What read queue length does an incoming req see
system.mem_ctrls.rdQLenPdf::27                      0                       # What read queue length does an incoming req see
system.mem_ctrls.rdQLenPdf::28                      0                       # What read queue length does an incoming req see
system.mem_ctrls.rdQLenPdf::29                      0                       # What read queue length does an incoming req see
system.mem_ctrls.rdQLenPdf::30                      0                       # What read queue length does an incoming req see
system.mem_ctrls.rdQLenPdf::31                      0                       # What read queue length does an incoming req see
system.mem_ctrls.wrQLenPdf::0                       1                       # What write queue length does an incoming req see
system.mem_ctrls.wrQLenPdf::1                       1                       # What write queue length does an incoming req see
system.mem_ctrls.wrQLenPdf::2                       1                       # What write queue length does an incoming req see
system.mem_ctrls.wrQLenPdf::3                       1                       # What write queue length does an incoming req see
system.mem_ctrls.wrQLenPdf::4                       1                       # What write queue length does an incoming req see
system.mem_ctrls.wrQLenPdf::5                       1                       # What write queue length does an incoming req see
system.mem_ctrls.wrQLenPdf::6                       1                       # What write queue length does an incoming req see
system.mem_ctrls.wrQLenPdf::7                       1                       # What write queue length does an incoming req see
system.mem_ctrls.wrQLenPdf::8                       1                       # What write queue length does an incoming req see
system.mem_ctrls.wrQLenPdf::9                       1                       # What write queue length does an incoming req see
system.mem_ctrls.wrQLenPdf::10                      1                       # What write queue length does an incoming req see
system.mem_ctrls.wrQLenPdf::11                      1                       # What write queue length does an incoming req see
system.mem_ctrls.wrQLenPdf::12                      1                       # What write queue length does an incoming req see
system.mem_ctrls.wrQLenPdf::13                      1                       # What write queue length does an incoming req see
system.mem_ctrls.wrQLenPdf::14                      1                       # What write queue length does an incoming req see
system.mem_ctrls.wrQLenPdf::15                      1                       # What write queue length does an incoming req see
system.mem_ctrls.wrQLenPdf::16                      1                       # What write queue length does an incoming req see
system.mem_ctrls.wrQLenPdf::17                      3                       # What write queue length does an incoming req see
system.mem_ctrls.wrQLenPdf::18                      3                       # What write queue length does an incoming req see
system.mem_ctrls.wrQLenPdf::19                      3                       # What write queue length does an incoming req see
system.mem_ctrls.wrQLenPdf::20                      3                       # What write queue length does an incoming req see
system.mem_ctrls.wrQLenPdf::21                      3                       # What write queue length does an incoming req see
system.mem_ctrls.wrQLenPdf::22                      3                       # What write queue length does an incoming req see
system.mem_ctrls.wrQLenPdf::23                      3                       # What write queue length does an incoming req see
system.mem_ctrls.wrQLenPdf::24                      3                       # What write queue length does an incoming req see
system.mem_ctrls.wrQLenPdf::25                      3                       # What write queue length does an incoming req see
system.mem_ctrls.wrQLenPdf::26                      3                       # What write queue length does an incoming req see
system.mem_ctrls.wrQLenPdf::27                      3                       # What write queue length does an incoming req see
system.mem_ctrls.wrQLenPdf::28                      2                       # What write queue length does an incoming req see
system.mem_ctrls.wrQLenPdf::29                      2                       # What write queue length does an incoming req see
system.mem_ctrls.wrQLenPdf::30                      2                       # What write queue length does an incoming req see
system.mem_ctrls.wrQLenPdf::31                      2                       # What write queue length does an incoming req see
system.mem_ctrls.wrQLenPdf::32                      2                       # What write queue length does an incoming req see
system.mem_ctrls.wrQLenPdf::33                      0                       # What write queue length does an incoming req see
system.mem_ctrls.wrQLenPdf::34                      0                       # What write queue length does an incoming req see
system.mem_ctrls.wrQLenPdf::35                      0                       # What write queue length does an incoming req see
system.mem_ctrls.wrQLenPdf::36                      0                       # What write queue length does an incoming req see
system.mem_ctrls.wrQLenPdf::37                      0                       # What write queue length does an incoming req see
system.mem_ctrls.wrQLenPdf::38                      0                       # What write queue length does an incoming req see
system.mem_ctrls.wrQLenPdf::39                      0                       # What write queue length does an incoming req see
system.mem_ctrls.wrQLenPdf::40                      0                       # What write queue length does an incoming req see
system.mem_ctrls.wrQLenPdf::41                      0                       # What write queue length does an incoming req see
system.mem_ctrls.wrQLenPdf::42                      0                       # What write queue length does an incoming req see
system.mem_ctrls.wrQLenPdf::43                      0                       # What write queue length does an incoming req see
system.mem_ctrls.wrQLenPdf::44                      0                       # What write queue length does an incoming req see
system.mem_ctrls.wrQLenPdf::45                      0                       # What write queue length does an incoming req see
system.mem_ctrls.wrQLenPdf::46                      0                       # What write queue length does an incoming req see
system.mem_ctrls.wrQLenPdf::47                      0                       # What write queue length does an incoming req see
system.mem_ctrls.wrQLenPdf::48                      0                       # What write queue length does an incoming req see
system.mem_ctrls.wrQLenPdf::49                      0                       # What write queue length does an incoming req see
system.mem_ctrls.wrQLenPdf::50                      0                       # What write queue length does an incoming req see
system.mem_ctrls.wrQLenPdf::51                      0                       # What write queue length does an incoming req see
system.mem_ctrls.wrQLenPdf::52                      0                       # What write queue length does an incoming req see
system.mem_ctrls.wrQLenPdf::53                      0                       # What write queue length does an incoming req see
system.mem_ctrls.wrQLenPdf::54                      0                       # What write queue length does an incoming req see
system.mem_ctrls.wrQLenPdf::55                      0                       # What write queue length does an incoming req see
system.mem_ctrls.wrQLenPdf::56                      0                       # What write queue length does an incoming req see
system.mem_ctrls.wrQLenPdf::57                      0                       # What write queue length does an incoming req see
system.mem_ctrls.wrQLenPdf::58                      0                       # What write queue length does an incoming req see
system.mem_ctrls.wrQLenPdf::59                      0                       # What write queue length does an incoming req see
system.mem_ctrls.wrQLenPdf::60                      0                       # What write queue length does an incoming req see
system.mem_ctrls.wrQLenPdf::61                      0                       # What write queue length does an incoming req see
system.mem_ctrls.wrQLenPdf::62                      0                       # What write queue length does an incoming req see
system.mem_ctrls.wrQLenPdf::63                      0                       # What write queue length does an incoming req see
system.mem_ctrls.rdPerTurnAround::samples            2                       # Reads before turning the bus around for writes
system.mem_ctrls.rdPerTurnAround::mean            180                       # Reads before turning the bus around for writes
system.mem_ctrls.rdPerTurnAround::gmean    151.627834                       # Reads before turning the bus around for writes
system.mem_ctrls.rdPerTurnAround::stdev    137.178716                       # Reads before turning the bus around for writes
system.mem_ctrls.rdPerTurnAround::80-95             1     50.00%     50.00% # Reads before turning the bus around for writes
system.mem_ctrls.rdPerTurnAround::272-287            1     50.00%    100.00% # Reads before turning the bus around for writes
system.mem_ctrls.rdPerTurnAround::total             2                       # Reads before turning the bus around for writes
system.mem_ctrls.wrPerTurnAround::samples            2                       # Writes before turning the bus around for reads
system.mem_ctrls.wrPerTurnAround::mean             16                       # Writes before turning the bus around for reads
system.mem_ctrls.wrPerTurnAround::gmean     16.000000                       # Writes before turning the bus around for reads
system.mem_ctrls.wrPerTurnAround::16                2    100.00%    100.00% # Writes before turning the bus around for reads
system.mem_ctrls.wrPerTurnAround::total             2                       # Writes before turning the bus around for reads
system.mem_ctrls.bytesReadWrQ                     448                       # Total number of bytes read from write queue
system.mem_ctrls.bytesReadSys                   25024                       # Total read bytes from the system interface side
system.mem_ctrls.bytesWrittenSys                 3840                       # Total written bytes from the system interface side
system.mem_ctrls.avgRdBWSys                    860.05                       # Average system read bandwidth in MiByte/s
system.mem_ctrls.avgWrBWSys                    131.98                       # Average system write bandwidth in MiByte/s
system.mem_ctrls.totGap                      29089000                       # Total gap between requests
system.mem_ctrls.avgGap                      64498.89                       # Average gap between requests
system.mem_ctrls.requestorReadBytes::.cpu.inst        15616                       # Per-requestor bytes read from memory
system.mem_ctrls.requestorReadBytes::.cpu.data         8960                       # Per-requestor bytes read from memory
system.mem_ctrls.requestorWriteBytes::.writebacks         2048                       # Per-requestor bytes write to memory
system.mem_ctrls.requestorReadRate::.cpu.inst 536706076.436623573303                       # Per-requestor bytes read from memory rate (Bytes/sec)
system.mem_ctrls.requestorReadRate::.cpu.data 307946109.430849611759                       # Per-requestor bytes read from memory rate (Bytes/sec)
system.mem_ctrls.requestorWriteRate::.writebacks 70387682.155622765422                       # Per-requestor bytes write to memory rate (Bytes/sec)
system.mem_ctrls.requestorReadAccesses::.cpu.inst          249                       # Per-requestor read serviced memory accesses
system.mem_ctrls.requestorReadAccesses::.cpu.data          142                       # Per-requestor read serviced memory accesses
system.mem_ctrls.requestorWriteAccesses::.writebacks           60                       # Per-requestor write serviced memory accesses
system.mem_ctrls.requestorReadTotalLat::.cpu.inst      6168500                       # Per-requestor read total memory access latency
system.mem_ctrls.requestorReadTotalLat::.cpu.data      2982000                       # Per-requestor read total memory access latency
system.mem_ctrls.requestorWriteTotalLat::.writebacks    263773000                       # Per-requestor write total memory access latency
system.mem_ctrls.requestorReadAvgLat::.cpu.inst     24773.09                       # Per-requestor read average memory access latency
system.mem_ctrls.requestorReadAvgLat::.cpu.data     21000.00                       # Per-requestor read average memory access latency
system.mem_ctrls.requestorWriteAvgLat::.writebacks   4396216.67                       # Per-requestor write average memory access latency
system.mem_ctrls.dram.bytes_read::.cpu.inst        15936                       # Number of bytes read from this memory
system.mem_ctrls.dram.bytes_read::.cpu.data         9088                       # Number of bytes read from this memory
system.mem_ctrls.dram.bytes_read::total         25024                       # Number of bytes read from this memory
system.mem_ctrls.dram.bytes_inst_read::.cpu.inst        15936                       # Number of instructions bytes read from this memory
system.mem_ctrls.dram.bytes_inst_read::total        15936                       # Number of instructions bytes read from this memory
system.mem_ctrls.dram.num_reads::.cpu.inst          249                       # Number of read requests responded to by this memory
system.mem_ctrls.dram.num_reads::.cpu.data          142                       # Number of read requests responded to by this memory
system.mem_ctrls.dram.num_reads::total            391                       # Number of read requests responded to by this memory
system.mem_ctrls.dram.bw_read::.cpu.inst    547704152                       # Total read bandwidth from this memory (bytes/s)
system.mem_ctrls.dram.bw_read::.cpu.data    312345340                       # Total read bandwidth from this memory (bytes/s)
system.mem_ctrls.dram.bw_read::total        860049491                       # Total read bandwidth from this memory (bytes/s)
system.mem_ctrls.dram.bw_inst_read::.cpu.inst    547704152                       # Instruction read bandwidth from this memory (bytes/s)
system.mem_ctrls.dram.bw_inst_read::total    547704152                       # Instruction read bandwidth from this memory (bytes/s)
system.mem_ctrls.dram.bw_total::.cpu.inst    547704152                       # Total bandwidth to/from this memory (bytes/s)
system.mem_ctrls.dram.bw_total::.cpu.data    312345340                       # Total bandwidth to/from this memory (bytes/s)
system.mem_ctrls.dram.bw_total::total       860049491                       # Total bandwidth to/from this memory (bytes/s)
system.mem_ctrls.dram.readBursts                  384                       # Number of DRAM read bursts
system.mem_ctrls.dram.writeBursts                  32                       # Number of DRAM write bursts
system.mem_ctrls.dram.perBankRdBursts::0           92                       # Per bank write bursts
system.mem_ctrls.dram.perBankRdBursts::1           44                       # Per bank write bursts
system.mem_ctrls.dram.perBankRdBursts::2           13                       # Per bank write bursts
system.mem_ctrls.dram.perBankRdBursts::3           33                       # Per bank write bursts
system.mem_ctrls.dram.perBankRdBursts::4           15                       # Per bank write bursts
system.mem_ctrls.dram.perBankRdBursts::5           36                       # Per bank write bursts
system.mem_ctrls.dram.perBankRdBursts::6           41                       # Per bank write bursts
system.mem_ctrls.dram.perBankRdBursts::7            9                       # Per bank write bursts
system.mem_ctrls.dram.perBankRdBursts::8            6                       # Per bank write bursts
system.mem_ctrls.dram.perBankRdBursts::9            6                       # Per bank write bursts
system.mem_ctrls.dram.perBankRdBursts::10           26                       # Per bank write bursts
system.mem_ctrls.dram.perBankRdBursts::11           43                       # Per bank write bursts
system.mem_ctrls.dram.perBankRdBursts::12            8                       # Per bank write bursts
system.mem_ctrls.dram.perBankRdBursts::13            5                       # Per bank write bursts
system.mem_ctrls.dram.perBankRdBursts::14            0                       # Per bank write bursts
system.mem_ctrls.dram.perBankRdBursts::15            7                       # Per bank write bursts
system.mem_ctrls.dram.perBankWrBursts::0            6                       # Per bank write bursts
system.mem_ctrls.dram.perBankWrBursts::1            0                       # Per bank write bursts
system.mem_ctrls.dram.perBankWrBursts::2            0                       # Per bank write bursts
system.mem_ctrls.dram.perBankWrBursts::3            8                       # Per bank write bursts
system.mem_ctrls.dram.perBankWrBursts::4            2                       # Per bank write bursts
system.mem_ctrls.dram.perBankWrBursts::5            8                       # Per bank write bursts
system.mem_ctrls.dram.perBankWrBursts::6            8                       # Per bank write bursts
system.mem_ctrls.dram.perBankWrBursts::7            0                       # Per bank write bursts
system.mem_ctrls.dram.perBankWrBursts::8            0                       # Per bank write bursts
system.mem_ctrls.dram.perBankWrBursts::9            0                       # Per bank write bursts
system.mem_ctrls.dram.perBankWrBursts::10            0                       # Per bank write bursts
system.mem_ctrls.dram.perBankWrBursts::11            0                       # Per bank write bursts
system.mem_ctrls.dram.perBankWrBursts::12            0                       # Per bank write bursts
system.mem_ctrls.dram.perBankWrBursts::13            0                       # Per bank write bursts
system.mem_ctrls.dram.perBankWrBursts::14            0                       # Per bank write bursts
system.mem_ctrls.dram.perBankWrBursts::15            0                       # Per bank write bursts
system.mem_ctrls.dram.totQLat                 1950500                       # Total ticks spent queuing
system.mem_ctrls.dram.totBusLat               1920000                       # Total ticks spent in databus transfers
system.mem_ctrls.dram.totMemAccLat            9150500                       # Total ticks spent from burst creation until serviced by the DRAM
system.mem_ctrls.dram.avgQLat                 5079.43                       # Average queueing delay per DRAM burst
system.mem_ctrls.dram.avgBusLat               5000.00                       # Average bus latency per DRAM burst
system.mem_ctrls.dram.avgMemAccLat           23829.43                       # Average memory access latency per DRAM burst
system.mem_ctrls.dram.readRowHits                 316                       # Number of row buffer hits during reads
system.mem_ctrls.dram.writeRowHits                 29                       # Number of row buffer hits during writes
system.mem_ctrls.dram.readRowHitRate            82.29                       # Row buffer hit rate for reads
system.mem_ctrls.dram.writeRowHitRate           90.62                       # Row buffer hit rate for writes
system.mem_ctrls.dram.bytesPerActivate::samples           61                       # Bytes accessed per row activation
system.mem_ctrls.dram.bytesPerActivate::mean   395.540984                       # Bytes accessed per row activation
system.mem_ctrls.dram.bytesPerActivate::gmean   262.719686                       # Bytes accessed per row activation
system.mem_ctrls.dram.bytesPerActivate::stdev   346.134539                       # Bytes accessed per row activation
system.mem_ctrls.dram.bytesPerActivate::0-127           11     18.03%     18.03% # Bytes accessed per row activation
system.mem_ctrls.dram.bytesPerActivate::128-255           19     31.15%     49.18% # Bytes accessed per row activation
system.mem_ctrls.dram.bytesPerActivate::256-383           10     16.39%     65.57% # Bytes accessed per row activation
system.mem_ctrls.dram.bytesPerActivate::384-511            3      4.92%     70.49% # Bytes accessed per row activation
system.mem_ctrls.dram.bytesPerActivate::512-639            2      3.28%     73.77% # Bytes accessed per row activation
system.mem_ctrls.dram.bytesPerActivate::640-767            2      3.28%     77.05% # Bytes accessed per row activation
system.mem_ctrls.dram.bytesPerActivate::768-895            3      4.92%     81.97% # Bytes accessed per row activation
system.mem_ctrls.dram.bytesPerActivate::896-1023            2      3.28%     85.25% # Bytes accessed per row activation
system.mem_ctrls.dram.bytesPerActivate::1024-1151            9     14.75%    100.00% # Bytes accessed per row activation
system.mem_ctrls.dram.bytesPerActivate::total           61                       # Bytes accessed per row activation
system.mem_ctrls.dram.bytesRead                 24576                       # Total number of bytes read from DRAM
system.mem_ctrls.dram.bytesWritten               2048                       # Total number of bytes written to DRAM
system.mem_ctrls.dram.avgRdBW              844.652186                       # Average DRAM read bandwidth in MiBytes/s
system.mem_ctrls.dram.avgWrBW               70.387682                       # Average DRAM write bandwidth in MiBytes/s
system.mem_ctrls.dram.peakBW                 12800.00                       # Theoretical peak bandwidth in MiByte/s
system.mem_ctrls.dram.busUtil                    7.15                       # Data bus utilization in percentage
system.mem_ctrls.dram.busUtilRead                6.60                       # Data bus utilization in percentage for reads
system.mem_ctrls.dram.busUtilWrite               0.55                       # Data bus utilization in percentage for writes
system.mem_ctrls.dram.pageHitRate               82.93                       # Row buffer hit rate, read and write combined
system.mem_ctrls.dram.power_state.pwrStateResidencyTicks::UNDEFINED     29096000                       # Cumulative time (in ticks) in various power states
system.mem_ctrls.dram.rank0.actEnergy          342720                       # Energy for activate commands per rank (pJ)
system.mem_ctrls.dram.rank0.preEnergy          159390                       # Energy for precharge commands per rank (pJ)
system.mem_ctrls.dram.rank0.readEnergy        2020620                       # Energy for read commands per rank (pJ)
system.mem_ctrls.dram.rank0.writeEnergy        167040                       # Energy for write commands per rank (pJ)
system.mem_ctrls.dram.rank0.refreshEnergy 1843920.000000                       # Energy for refresh commands per rank (pJ)
system.mem_ctrls.dram.rank0.actBackEnergy     13229700                       # Energy for active background per rank (pJ)
system.mem_ctrls.dram.rank0.preBackEnergy        32160                       # Energy for precharge background per rank (pJ)
system.mem_ctrls.dram.rank0.actPowerDownEnergy            0                       # Energy for active power-down per rank (pJ)
system.mem_ctrls.dram.rank0.prePowerDownEnergy            0                       # Energy for precharge power-down per rank (pJ)
system.mem_ctrls.dram.rank0.selfRefreshEnergy            0                       # Energy for self refresh per rank (pJ)
system.mem_ctrls.dram.rank0.totalEnergy      17795550                       # Total energy per rank (pJ)
system.mem_ctrls.dram.rank0.averagePower   611.614999                       # Core power per rank (mW)
system.mem_ctrls.dram.rank0.totalIdleTime            0                       # Total Idle time Per DRAM Rank
system.mem_ctrls.dram.rank0.pwrStateTime::IDLE         1000                       # Time in different power states
system.mem_ctrls.dram.rank0.pwrStateTime::REF       780000                       # Time in different power states
system.mem_ctrls.dram.rank0.pwrStateTime::SREF            0                       # Time in different power states
system.mem_ctrls.dram.rank0.pwrStateTime::PRE_PDN            0                       # Time in different power states
system.mem_ctrls.dram.rank0.pwrStateTime::ACT     28315000                       # Time in different power states
system.mem_ctrls.dram.rank0.pwrStateTime::ACT_PDN            0                       # Time in different power states
system.mem_ctrls.dram.rank1.actEnergy          164220                       # Energy for activate commands per rank (pJ)
system.mem_ctrls.dram.rank1.preEnergy           72105                       # Energy for precharge commands per rank (pJ)
system.mem_ctrls.dram.rank1.readEnergy         721140                       # Energy for read commands per rank (pJ)
system.mem_ctrls.dram.rank1.writeEnergy             0                       # Energy for write commands per rank (pJ)
system.mem_ctrls.dram.rank1.refreshEnergy 1843920.000000                       # Energy for refresh commands per rank (pJ)
system.mem_ctrls.dram.rank1.actBackEnergy     11808120                       # Energy for active background per rank (pJ)
system.mem_ctrls.dram.rank1.preBackEnergy      1229280                       # Energy for precharge background per rank (pJ)
system.mem_ctrls.dram.rank1.actPowerDownEnergy            0                       # Energy for active power-down per rank (pJ)
system.mem_ctrls.dram.rank1.prePowerDownEnergy            0                       # Energy for precharge power-down per rank (pJ)
system.mem_ctrls.dram.rank1.selfRefreshEnergy            0                       # Energy for self refresh per rank (pJ)
system.mem_ctrls.dram.rank1.totalEnergy      15838785                       # Total energy per rank (pJ)
system.mem_ctrls.dram.rank1.averagePower   544.362971                       # Core power per rank (mW)
system.mem_ctrls.dram.rank1.totalIdleTime            0                       # Total Idle time Per DRAM Rank
system.mem_ctrls.dram.rank1.pwrStateTime::IDLE      3118000                       # Time in different power states
system.mem_ctrls.dram.rank1.pwrStateTime::REF       780000                       # Time in different power states
system.mem_ctrls.dram.rank1.pwrStateTime::SREF            0                       # Time in different power states
system.mem_ctrls.dram.rank1.pwrStateTime::PRE_PDN            0                       # Time in different power states
system.mem_ctrls.dram.rank1.pwrStateTime::ACT     25198000                       # Time in different power states
system.mem_ctrls.dram.rank1.pwrStateTime::ACT_PDN            0                       # Time in different power states
system.mem_ctrls.power_state.pwrStateResidencyTicks::UNDEFINED     29096000                       # Cumulative time (in ticks) in various power states
system.membus.trans_dist::ReadResp                348                       # Transaction distribution
system.membus.trans_dist::WritebackClean           70                       # Transaction distribution
system.membus.trans_dist::ReadExReq                43                       # Transaction distribution
system.membus.trans_dist::ReadExResp               43                       # Transaction distribution
system.membus.trans_dist::ReadCleanReq            249                       # Transaction distribution
system.membus.trans_dist::ReadSharedReq            99                       # Transaction distribution
system.membus.pkt_count_system.cpu.icache.mem_side_port::system.mem_ctrls.port          568                       # Packet count per connected requestor and responder (bytes)
system.membus.pkt_count_system.cpu.dcache.mem_side_port::system.mem_ctrls.port          284                       # Packet count per connected requestor and responder (bytes)
system.membus.pkt_count::total                    852                       # Packet count per connected requestor and responder (bytes)
system.membus.pkt_size_system.cpu.icache.mem_side_port::system.mem_ctrls.port        20416                       # Cumulative packet size per connected requestor and responder (bytes)
system.membus.pkt_size_system.cpu.dcache.mem_side_port::system.mem_ctrls.port         9088                       # Cumulative packet size per connected requestor and responder (bytes)
system.membus.pkt_size::total                   29504                       # Cumulative packet size per connected requestor and responder (bytes)
system.membus.snoops                                0                       # Total snoops (count)
system.membus.snoopTraffic                          0                       # Total snoop traffic (bytes)
system.membus.snoop_fanout::samples               391                       # Request fanout histogram
system.membus.snoop_fanout::mean             0.086957                       # Request fanout histogram
system.membus.snoop_fanout::stdev            0.282132                       # Request fanout histogram
system.membus.snoop_fanout::underflows              0      0.00%      0.00% # Request fanout histogram
system.membus.snoop_fanout::0                     357     91.30%     91.30% # Request fanout histogram
system.membus.snoop_fanout::1                      34      8.70%    100.00% # Request fanout histogram
system.membus.snoop_fanout::2                       0      0.00%    100.00% # Request fanout histogram
system.membus.snoop_fanout::overflows               0      0.00%    100.00% # Request fanout histogram
system.membus.snoop_fanout::min_value               0                       # Request fanout histogram
system.membus.snoop_fanout::max_value               1                       # Request fanout histogram
system.membus.snoop_fanout::total                 391                       # Request fanout histogram
system.membus.power_state.pwrStateResidencyTicks::UNDEFINED     29096000                       # Cumulative time (in ticks) in various power states
system.membus.reqLayer0.occupancy              746000                       # Layer occupancy (ticks)
system.membus.reqLayer0.utilization               2.6                       # Layer utilization (%)
system.membus.respLayer1.occupancy            1321500                       # Layer occupancy (ticks)
system.membus.respLayer1.utilization              4.5                       # Layer utilization (%)
system.membus.respLayer2.occupancy             751000                       # Layer occupancy (ticks)
system.membus.respLayer2.utilization              2.6                       # Layer utilization (%)
system.voltage_domain.voltage                       1                       # Voltage in Volts

---------- End Simulation Statistics   ----------
