
---------- Begin Simulation Statistics ----------
final_tick                               118793904000                       # Number of ticks from beginning of simulation (restored from checkpoints and never reset)
host_inst_rate                                 349368                       # Simulator instruction rate (inst/s)
host_mem_usage                                 669756                       # Number of bytes of host memory used
host_op_rate                                   353221                       # Simulator op (including micro ops) rate (op/s)
host_seconds                                   286.23                       # Real time elapsed on the host
host_tick_rate                              415027966                       # Simulator tick rate (ticks/s)
sim_freq                                 1000000000000                       # Frequency of simulated ticks
sim_insts                                   100000000                       # Number of instructions simulated
sim_ops                                     101102730                       # Number of ops (including micro ops) simulated
sim_seconds                                  0.118794                       # Number of seconds simulated
sim_ticks                                118793904000                       # Number of ticks simulated
system.cpu.committedInsts                   100000000                       # Number of instructions committed
system.cpu.committedOps                     101102730                       # Number of ops (including micro ops) committed
system.cpu.cpi                               1.187939                       # CPI: cycles per instruction
system.cpu.discardedOps                        970026                       # Number of ops (including micro ops) which were discarded before commit
system.cpu.idleCycles                         2853967                       # Total number of cycles that the object has spent stopped
system.cpu.ipc                               0.841794                       # IPC: instructions per cycle
system.cpu.numCycles                        118793904                       # number of cpu cycles simulated
system.cpu.numFetchSuspends                         0                       # Number of times Execute suspended instruction fetching
system.cpu.numWorkItemsCompleted                    0                       # number of work items this cpu completed
system.cpu.numWorkItemsStarted                      0                       # number of work items this cpu started
system.cpu.op_class_0::No_OpClass                   0      0.00%      0.00% # Class of committed instruction
system.cpu.op_class_0::IntAlu                55115624     54.51%     54.51% # Class of committed instruction
system.cpu.op_class_0::IntMult                 167845      0.17%     54.68% # Class of committed instruction
system.cpu.op_class_0::IntDiv                       0      0.00%     54.68% # Class of committed instruction
system.cpu.op_class_0::FloatAdd                     0      0.00%     54.68% # Class of committed instruction
system.cpu.op_class_0::FloatCmp                     0      0.00%     54.68% # Class of committed instruction
system.cpu.op_class_0::FloatCvt                     0      0.00%     54.68% # Class of committed instruction
system.cpu.op_class_0::FloatMult                    0      0.00%     54.68% # Class of committed instruction
system.cpu.op_class_0::FloatMultAcc                 0      0.00%     54.68% # Class of committed instruction
system.cpu.op_class_0::FloatDiv                     0      0.00%     54.68% # Class of committed instruction
system.cpu.op_class_0::FloatMisc                    0      0.00%     54.68% # Class of committed instruction
system.cpu.op_class_0::FloatSqrt                    0      0.00%     54.68% # Class of committed instruction
system.cpu.op_class_0::SimdAdd                    380      0.00%     54.68% # Class of committed instruction
system.cpu.op_class_0::SimdAddAcc                   0      0.00%     54.68% # Class of committed instruction
system.cpu.op_class_0::SimdAlu                    470      0.00%     54.68% # Class of committed instruction
system.cpu.op_class_0::SimdCmp                    382      0.00%     54.68% # Class of committed instruction
system.cpu.op_class_0::SimdCvt                      0      0.00%     54.68% # Class of committed instruction
system.cpu.op_class_0::SimdMisc                    53      0.00%     54.68% # Class of committed instruction
system.cpu.op_class_0::SimdMult                     0      0.00%     54.68% # Class of committed instruction
system.cpu.op_class_0::SimdMultAcc                  0      0.00%     54.68% # Class of committed instruction
system.cpu.op_class_0::SimdShift                    0      0.00%     54.68% # Class of committed instruction
system.cpu.op_class_0::SimdShiftAcc                 0      0.00%     54.68% # Class of committed instruction
system.cpu.op_class_0::SimdDiv                      0      0.00%     54.68% # Class of committed instruction
system.cpu.op_class_0::SimdSqrt                     0      0.00%     54.68% # Class of committed instruction
system.cpu.op_class_0::SimdFloatAdd            267609      0.26%     54.95% # Class of committed instruction
system.cpu.op_class_0::SimdFloatAlu                 0      0.00%     54.95% # Class of committed instruction
system.cpu.op_class_0::SimdFloatCmp            259630      0.26%     55.20% # Class of committed instruction
system.cpu.op_class_0::SimdFloatCvt            161456      0.16%     55.36% # Class of committed instruction
system.cpu.op_class_0::SimdFloatDiv             54308      0.05%     55.42% # Class of committed instruction
system.cpu.op_class_0::SimdFloatMisc           483618      0.48%     55.90% # Class of committed instruction
system.cpu.op_class_0::SimdFloatMult            33524      0.03%     55.93% # Class of committed instruction
system.cpu.op_class_0::SimdFloatMultAcc         11115      0.01%     55.94% # Class of committed instruction
system.cpu.op_class_0::SimdFloatSqrt                0      0.00%     55.94% # Class of committed instruction
system.cpu.op_class_0::SimdReduceAdd                0      0.00%     55.94% # Class of committed instruction
system.cpu.op_class_0::SimdReduceAlu                0      0.00%     55.94% # Class of committed instruction
system.cpu.op_class_0::SimdReduceCmp                0      0.00%     55.94% # Class of committed instruction
system.cpu.op_class_0::SimdFloatReduceAdd            0      0.00%     55.94% # Class of committed instruction
system.cpu.op_class_0::SimdFloatReduceCmp            0      0.00%     55.94% # Class of committed instruction
system.cpu.op_class_0::SimdAes                      0      0.00%     55.94% # Class of committed instruction
system.cpu.op_class_0::SimdAesMix                   0      0.00%     55.94% # Class of committed instruction
system.cpu.op_class_0::SimdSha1Hash                 0      0.00%     55.94% # Class of committed instruction
system.cpu.op_class_0::SimdSha1Hash2                0      0.00%     55.94% # Class of committed instruction
system.cpu.op_class_0::SimdSha256Hash               0      0.00%     55.94% # Class of committed instruction
system.cpu.op_class_0::SimdSha256Hash2              0      0.00%     55.94% # Class of committed instruction
system.cpu.op_class_0::SimdShaSigma2                0      0.00%     55.94% # Class of committed instruction
system.cpu.op_class_0::SimdShaSigma3                0      0.00%     55.94% # Class of committed instruction
system.cpu.op_class_0::SimdPredAlu                  0      0.00%     55.94% # Class of committed instruction
system.cpu.op_class_0::MemRead               38167611     37.75%     93.69% # Class of committed instruction
system.cpu.op_class_0::MemWrite               6379105      6.31%    100.00% # Class of committed instruction
system.cpu.op_class_0::FloatMemRead                 0      0.00%    100.00% # Class of committed instruction
system.cpu.op_class_0::FloatMemWrite                0      0.00%    100.00% # Class of committed instruction
system.cpu.op_class_0::IprAccess                    0      0.00%    100.00% # Class of committed instruction
system.cpu.op_class_0::InstPrefetch                 0      0.00%    100.00% # Class of committed instruction
system.cpu.op_class_0::total                101102730                       # Class of committed instruction
system.cpu.tickCycles                       115939937                       # Number of cycles that the object actually ticked
system.cpu.workload.numSyscalls                    32                       # Number of system calls
system.membus.snoop_filter.hit_multi_requests            0                       # Number of requests hitting in the snoop filter with multiple (>1) holders of the requested data.
system.membus.snoop_filter.hit_multi_snoops            0                       # Number of snoops hitting in the snoop filter with multiple (>1) holders of the requested data.
system.membus.snoop_filter.hit_single_requests            0                       # Number of requests hitting in the snoop filter with a single holder of the requested data.
system.membus.snoop_filter.hit_single_snoops            0                       # Number of snoops hitting in the snoop filter with a single holder of the requested data.
system.membus.snoop_filter.tot_requests          5490                       # Total number of requests made to the snoop filter.
system.membus.snoop_filter.tot_snoops               0                       # Total number of snoops made to the snoop filter.
system.tol2bus.snoop_filter.hit_multi_requests         1319                       # Number of requests hitting in the snoop filter with multiple (>1) holders of the requested data.
system.tol2bus.snoop_filter.hit_multi_snoops            0                       # Number of snoops hitting in the snoop filter with multiple (>1) holders of the requested data.
system.tol2bus.snoop_filter.hit_single_requests        58924                       # Number of requests hitting in the snoop filter with a single holder of the requested data.
system.tol2bus.snoop_filter.hit_single_snoops            0                       # Number of snoops hitting in the snoop filter with a single holder of the requested data.
system.tol2bus.snoop_filter.tot_requests       121031                       # Total number of requests made to the snoop filter.
system.tol2bus.snoop_filter.tot_snoops              0                       # Total number of snoops made to the snoop filter.
system.clk_domain.clock                          1000                       # Clock period in ticks
system.cpu.branchPred.lookups                 6499583                       # Number of BP lookups
system.cpu.branchPred.condPredicted           5091883                       # Number of conditional branches predicted
system.cpu.branchPred.condIncorrect            349146                       # Number of conditional branches incorrect
system.cpu.branchPred.BTBLookups              4082627                       # Number of BTB lookups
system.cpu.branchPred.BTBHits                 4075288                       # Number of BTB hits
system.cpu.branchPred.BTBHitPct             99.820238                       # BTB Hit Percentage
system.cpu.branchPred.RASUsed                  312513                       # Number of times the RAS was used to get a target.
system.cpu.branchPred.RASIncorrect                  4                       # Number of incorrect RAS predictions.
system.cpu.branchPred.indirectLookups          675687                       # Number of indirect predictor lookups.
system.cpu.branchPred.indirectHits             102894                       # Number of indirect target hits.
system.cpu.branchPred.indirectMisses           572793                       # Number of indirect misses.
system.cpu.branchPred.indirectMispredicted        37437                       # Number of mispredicted indirect branches.
system.cpu.dcache.demand_hits::.cpu.data     43854623                       # number of demand (read+write) hits
system.cpu.dcache.demand_hits::total         43854623                       # number of demand (read+write) hits
system.cpu.dcache.overall_hits::.cpu.data     43863233                       # number of overall hits
system.cpu.dcache.overall_hits::total        43863233                       # number of overall hits
system.cpu.dcache.demand_misses::.cpu.data        59640                       # number of demand (read+write) misses
system.cpu.dcache.demand_misses::total          59640                       # number of demand (read+write) misses
system.cpu.dcache.overall_misses::.cpu.data        59746                       # number of overall misses
system.cpu.dcache.overall_misses::total         59746                       # number of overall misses
system.cpu.dcache.demand_miss_latency::.cpu.data   2055371000                       # number of demand (read+write) miss cycles
system.cpu.dcache.demand_miss_latency::total   2055371000                       # number of demand (read+write) miss cycles
system.cpu.dcache.overall_miss_latency::.cpu.data   2055371000                       # number of overall miss cycles
system.cpu.dcache.overall_miss_latency::total   2055371000                       # number of overall miss cycles
system.cpu.dcache.demand_accesses::.cpu.data     43914263                       # number of demand (read+write) accesses
system.cpu.dcache.demand_accesses::total     43914263                       # number of demand (read+write) accesses
system.cpu.dcache.overall_accesses::.cpu.data     43922979                       # number of overall (read+write) accesses
system.cpu.dcache.overall_accesses::total     43922979                       # number of overall (read+write) accesses
system.cpu.dcache.demand_miss_rate::.cpu.data     0.001358                       # miss rate for demand accesses
system.cpu.dcache.demand_miss_rate::total     0.001358                       # miss rate for demand accesses
system.cpu.dcache.overall_miss_rate::.cpu.data     0.001360                       # miss rate for overall accesses
system.cpu.dcache.overall_miss_rate::total     0.001360                       # miss rate for overall accesses
system.cpu.dcache.demand_avg_miss_latency::.cpu.data 34462.961100                       # average overall miss latency
system.cpu.dcache.demand_avg_miss_latency::total 34462.961100                       # average overall miss latency
system.cpu.dcache.overall_avg_miss_latency::.cpu.data 34401.817695                       # average overall miss latency
system.cpu.dcache.overall_avg_miss_latency::total 34401.817695                       # average overall miss latency
system.cpu.dcache.blocked_cycles::no_mshrs           62                       # number of cycles access was blocked
system.cpu.dcache.blocked_cycles::no_targets            0                       # number of cycles access was blocked
system.cpu.dcache.blocked::no_mshrs                 1                       # number of cycles access was blocked
system.cpu.dcache.blocked::no_targets               0                       # number of cycles access was blocked
system.cpu.dcache.avg_blocked_cycles::no_mshrs           62                       # average number of cycles each access was blocked
system.cpu.dcache.avg_blocked_cycles::no_targets          nan                       # average number of cycles each access was blocked
system.cpu.dcache.writebacks::.writebacks        51959                       # number of writebacks
system.cpu.dcache.writebacks::total             51959                       # number of writebacks
system.cpu.dcache.demand_mshr_hits::.cpu.data         3945                       # number of demand (read+write) MSHR hits
system.cpu.dcache.demand_mshr_hits::total         3945                       # number of demand (read+write) MSHR hits
system.cpu.dcache.overall_mshr_hits::.cpu.data         3945                       # number of overall MSHR hits
system.cpu.dcache.overall_mshr_hits::total         3945                       # number of overall MSHR hits
system.cpu.dcache.demand_mshr_misses::.cpu.data        55695                       # number of demand (read+write) MSHR misses
system.cpu.dcache.demand_mshr_misses::total        55695                       # number of demand (read+write) MSHR misses
system.cpu.dcache.overall_mshr_misses::.cpu.data        55789                       # number of overall MSHR misses
system.cpu.dcache.overall_mshr_misses::total        55789                       # number of overall MSHR misses
system.cpu.dcache.demand_mshr_miss_latency::.cpu.data   1688351000                       # number of demand (read+write) MSHR miss cycles
system.cpu.dcache.demand_mshr_miss_latency::total   1688351000                       # number of demand (read+write) MSHR miss cycles
system.cpu.dcache.overall_mshr_miss_latency::.cpu.data   1697643000                       # number of overall MSHR miss cycles
system.cpu.dcache.overall_mshr_miss_latency::total   1697643000                       # number of overall MSHR miss cycles
system.cpu.dcache.demand_mshr_miss_rate::.cpu.data     0.001268                       # mshr miss rate for demand accesses
system.cpu.dcache.demand_mshr_miss_rate::total     0.001268                       # mshr miss rate for demand accesses
system.cpu.dcache.overall_mshr_miss_rate::.cpu.data     0.001270                       # mshr miss rate for overall accesses
system.cpu.dcache.overall_mshr_miss_rate::total     0.001270                       # mshr miss rate for overall accesses
system.cpu.dcache.demand_avg_mshr_miss_latency::.cpu.data 30314.229284                       # average overall mshr miss latency
system.cpu.dcache.demand_avg_mshr_miss_latency::total 30314.229284                       # average overall mshr miss latency
system.cpu.dcache.overall_avg_mshr_miss_latency::.cpu.data 30429.708365                       # average overall mshr miss latency
system.cpu.dcache.overall_avg_mshr_miss_latency::total 30429.708365                       # average overall mshr miss latency
system.cpu.dcache.replacements                  53742                       # number of replacements
system.cpu.dcache.ReadReq_hits::.cpu.data     37570593                       # number of ReadReq hits
system.cpu.dcache.ReadReq_hits::total        37570593                       # number of ReadReq hits
system.cpu.dcache.ReadReq_misses::.cpu.data        22822                       # number of ReadReq misses
system.cpu.dcache.ReadReq_misses::total         22822                       # number of ReadReq misses
system.cpu.dcache.ReadReq_miss_latency::.cpu.data    661701000                       # number of ReadReq miss cycles
system.cpu.dcache.ReadReq_miss_latency::total    661701000                       # number of ReadReq miss cycles
system.cpu.dcache.ReadReq_accesses::.cpu.data     37593415                       # number of ReadReq accesses(hits+misses)
system.cpu.dcache.ReadReq_accesses::total     37593415                       # number of ReadReq accesses(hits+misses)
system.cpu.dcache.ReadReq_miss_rate::.cpu.data     0.000607                       # miss rate for ReadReq accesses
system.cpu.dcache.ReadReq_miss_rate::total     0.000607                       # miss rate for ReadReq accesses
system.cpu.dcache.ReadReq_avg_miss_latency::.cpu.data 28993.997020                       # average ReadReq miss latency
system.cpu.dcache.ReadReq_avg_miss_latency::total 28993.997020                       # average ReadReq miss latency
system.cpu.dcache.ReadReq_mshr_hits::.cpu.data          331                       # number of ReadReq MSHR hits
system.cpu.dcache.ReadReq_mshr_hits::total          331                       # number of ReadReq MSHR hits
system.cpu.dcache.ReadReq_mshr_misses::.cpu.data        22491                       # number of ReadReq MSHR misses
system.cpu.dcache.ReadReq_mshr_misses::total        22491                       # number of ReadReq MSHR misses
system.cpu.dcache.ReadReq_mshr_miss_latency::.cpu.data    603471000                       # number of ReadReq MSHR miss cycles
system.cpu.dcache.ReadReq_mshr_miss_latency::total    603471000                       # number of ReadReq MSHR miss cycles
system.cpu.dcache.ReadReq_mshr_miss_rate::.cpu.data     0.000598                       # mshr miss rate for ReadReq accesses
system.cpu.dcache.ReadReq_mshr_miss_rate::total     0.000598                       # mshr miss rate for ReadReq accesses
system.cpu.dcache.ReadReq_avg_mshr_miss_latency::.cpu.data 26831.666000                       # average ReadReq mshr miss latency
system.cpu.dcache.ReadReq_avg_mshr_miss_latency::total 26831.666000                       # average ReadReq mshr miss latency
system.cpu.dcache.WriteReq_hits::.cpu.data      6284030                       # number of WriteReq hits
system.cpu.dcache.WriteReq_hits::total        6284030                       # number of WriteReq hits
system.cpu.dcache.WriteReq_misses::.cpu.data        36818                       # number of WriteReq misses
system.cpu.dcache.WriteReq_misses::total        36818                       # number of WriteReq misses
system.cpu.dcache.WriteReq_miss_latency::.cpu.data   1393670000                       # number of WriteReq miss cycles
system.cpu.dcache.WriteReq_miss_latency::total   1393670000                       # number of WriteReq miss cycles
system.cpu.dcache.WriteReq_accesses::.cpu.data      6320848                       # number of WriteReq accesses(hits+misses)
system.cpu.dcache.WriteReq_accesses::total      6320848                       # number of WriteReq accesses(hits+misses)
system.cpu.dcache.WriteReq_miss_rate::.cpu.data     0.005825                       # miss rate for WriteReq accesses
system.cpu.dcache.WriteReq_miss_rate::total     0.005825                       # miss rate for WriteReq accesses
system.cpu.dcache.WriteReq_avg_miss_latency::.cpu.data 37852.952360                       # average WriteReq miss latency
system.cpu.dcache.WriteReq_avg_miss_latency::total 37852.952360                       # average WriteReq miss latency
system.cpu.dcache.WriteReq_mshr_hits::.cpu.data         3614                       # number of WriteReq MSHR hits
system.cpu.dcache.WriteReq_mshr_hits::total         3614                       # number of WriteReq MSHR hits
system.cpu.dcache.WriteReq_mshr_misses::.cpu.data        33204                       # number of WriteReq MSHR misses
system.cpu.dcache.WriteReq_mshr_misses::total        33204                       # number of WriteReq MSHR misses
system.cpu.dcache.WriteReq_mshr_miss_latency::.cpu.data   1084880000                       # number of WriteReq MSHR miss cycles
system.cpu.dcache.WriteReq_mshr_miss_latency::total   1084880000                       # number of WriteReq MSHR miss cycles
system.cpu.dcache.WriteReq_mshr_miss_rate::.cpu.data     0.005253                       # mshr miss rate for WriteReq accesses
system.cpu.dcache.WriteReq_mshr_miss_rate::total     0.005253                       # mshr miss rate for WriteReq accesses
system.cpu.dcache.WriteReq_avg_mshr_miss_latency::.cpu.data 32673.171907                       # average WriteReq mshr miss latency
system.cpu.dcache.WriteReq_avg_mshr_miss_latency::total 32673.171907                       # average WriteReq mshr miss latency
system.cpu.dcache.SoftPFReq_hits::.cpu.data         8610                       # number of SoftPFReq hits
system.cpu.dcache.SoftPFReq_hits::total          8610                       # number of SoftPFReq hits
system.cpu.dcache.SoftPFReq_misses::.cpu.data          106                       # number of SoftPFReq misses
system.cpu.dcache.SoftPFReq_misses::total          106                       # number of SoftPFReq misses
system.cpu.dcache.SoftPFReq_accesses::.cpu.data         8716                       # number of SoftPFReq accesses(hits+misses)
system.cpu.dcache.SoftPFReq_accesses::total         8716                       # number of SoftPFReq accesses(hits+misses)
system.cpu.dcache.SoftPFReq_miss_rate::.cpu.data     0.012162                       # miss rate for SoftPFReq accesses
system.cpu.dcache.SoftPFReq_miss_rate::total     0.012162                       # miss rate for SoftPFReq accesses
system.cpu.dcache.SoftPFReq_mshr_misses::.cpu.data           94                       # number of SoftPFReq MSHR misses
system.cpu.dcache.SoftPFReq_mshr_misses::total           94                       # number of SoftPFReq MSHR misses
system.cpu.dcache.SoftPFReq_mshr_miss_latency::.cpu.data      9292000                       # number of SoftPFReq MSHR miss cycles
system.cpu.dcache.SoftPFReq_mshr_miss_latency::total      9292000                       # number of SoftPFReq MSHR miss cycles
system.cpu.dcache.SoftPFReq_mshr_miss_rate::.cpu.data     0.010785                       # mshr miss rate for SoftPFReq accesses
system.cpu.dcache.SoftPFReq_mshr_miss_rate::total     0.010785                       # mshr miss rate for SoftPFReq accesses
system.cpu.dcache.SoftPFReq_avg_mshr_miss_latency::.cpu.data 98851.063830                       # average SoftPFReq mshr miss latency
system.cpu.dcache.SoftPFReq_avg_mshr_miss_latency::total 98851.063830                       # average SoftPFReq mshr miss latency
system.cpu.dcache.LoadLockedReq_hits::.cpu.data          165                       # number of LoadLockedReq hits
system.cpu.dcache.LoadLockedReq_hits::total          165                       # number of LoadLockedReq hits
system.cpu.dcache.LoadLockedReq_misses::.cpu.data            1                       # number of LoadLockedReq misses
system.cpu.dcache.LoadLockedReq_misses::total            1                       # number of LoadLockedReq misses
system.cpu.dcache.LoadLockedReq_miss_latency::.cpu.data       109000                       # number of LoadLockedReq miss cycles
system.cpu.dcache.LoadLockedReq_miss_latency::total       109000                       # number of LoadLockedReq miss cycles
system.cpu.dcache.LoadLockedReq_accesses::.cpu.data          166                       # number of LoadLockedReq accesses(hits+misses)
system.cpu.dcache.LoadLockedReq_accesses::total          166                       # number of LoadLockedReq accesses(hits+misses)
system.cpu.dcache.LoadLockedReq_miss_rate::.cpu.data     0.006024                       # miss rate for LoadLockedReq accesses
system.cpu.dcache.LoadLockedReq_miss_rate::total     0.006024                       # miss rate for LoadLockedReq accesses
system.cpu.dcache.LoadLockedReq_avg_miss_latency::.cpu.data       109000                       # average LoadLockedReq miss latency
system.cpu.dcache.LoadLockedReq_avg_miss_latency::total       109000                       # average LoadLockedReq miss latency
system.cpu.dcache.LoadLockedReq_mshr_misses::.cpu.data            1                       # number of LoadLockedReq MSHR misses
system.cpu.dcache.LoadLockedReq_mshr_misses::total            1                       # number of LoadLockedReq MSHR misses
system.cpu.dcache.LoadLockedReq_mshr_miss_latency::.cpu.data       107000                       # number of LoadLockedReq MSHR miss cycles
system.cpu.dcache.LoadLockedReq_mshr_miss_latency::total       107000                       # number of LoadLockedReq MSHR miss cycles
system.cpu.dcache.LoadLockedReq_mshr_miss_rate::.cpu.data     0.006024                       # mshr miss rate for LoadLockedReq accesses
system.cpu.dcache.LoadLockedReq_mshr_miss_rate::total     0.006024                       # mshr miss rate for LoadLockedReq accesses
system.cpu.dcache.LoadLockedReq_avg_mshr_miss_latency::.cpu.data       107000                       # average LoadLockedReq mshr miss latency
system.cpu.dcache.LoadLockedReq_avg_mshr_miss_latency::total       107000                       # average LoadLockedReq mshr miss latency
system.cpu.dcache.StoreCondReq_hits::.cpu.data          166                       # number of StoreCondReq hits
system.cpu.dcache.StoreCondReq_hits::total          166                       # number of StoreCondReq hits
system.cpu.dcache.StoreCondReq_accesses::.cpu.data          166                       # number of StoreCondReq accesses(hits+misses)
system.cpu.dcache.StoreCondReq_accesses::total          166                       # number of StoreCondReq accesses(hits+misses)
system.cpu.dcache.power_state.pwrStateResidencyTicks::UNDEFINED 118793904000                       # Cumulative time (in ticks) in various power states
system.cpu.dcache.tags.tagsinuse          2005.808374                       # Cycle average of tags in use
system.cpu.dcache.tags.total_refs            43919354                       # Total number of references to valid blocks.
system.cpu.dcache.tags.sampled_refs             55790                       # Sample count of references to valid blocks.
system.cpu.dcache.tags.avg_refs            787.226277                       # Average number of references to valid blocks.
system.cpu.dcache.tags.warmup_cycle            223000                       # Cycle when the warmup percentage was hit.
system.cpu.dcache.tags.occ_blocks::.cpu.data  2005.808374                       # Average occupied blocks per requestor
system.cpu.dcache.tags.occ_percent::.cpu.data     0.979399                       # Average percentage of cache occupancy
system.cpu.dcache.tags.occ_percent::total     0.979399                       # Average percentage of cache occupancy
system.cpu.dcache.tags.occ_task_id_blocks::1024         2048                       # Occupied blocks per task id
system.cpu.dcache.tags.age_task_id_blocks_1024::0            1                       # Occupied blocks per task id
system.cpu.dcache.tags.age_task_id_blocks_1024::1           28                       # Occupied blocks per task id
system.cpu.dcache.tags.age_task_id_blocks_1024::2          184                       # Occupied blocks per task id
system.cpu.dcache.tags.age_task_id_blocks_1024::3          618                       # Occupied blocks per task id
system.cpu.dcache.tags.age_task_id_blocks_1024::4         1217                       # Occupied blocks per task id
system.cpu.dcache.tags.occ_task_id_percent::1024            1                       # Percentage of cache occupancy per task id
system.cpu.dcache.tags.tag_accesses          43979101                       # Number of tag accesses
system.cpu.dcache.tags.data_accesses         43979101                       # Number of data accesses
system.cpu.dcache.tags.power_state.pwrStateResidencyTicks::UNDEFINED 118793904000                       # Cumulative time (in ticks) in various power states
system.cpu.dtb.instHits                             0                       # ITB inst hits
system.cpu.dtb.instMisses                           0                       # ITB inst misses
system.cpu.dtb.readHits                             0                       # DTB read hits
system.cpu.dtb.readMisses                           0                       # DTB read misses
system.cpu.dtb.writeHits                            0                       # DTB write hits
system.cpu.dtb.writeMisses                          0                       # DTB write misses
system.cpu.dtb.inserts                              0                       # Number of times an entry is inserted into the TLB
system.cpu.dtb.flushTlb                             0                       # Number of times complete TLB was flushed
system.cpu.dtb.flushTlbMva                          0                       # Number of times TLB was flushed by MVA
system.cpu.dtb.flushTlbMvaAsid                      0                       # Number of times TLB was flushed by MVA & ASID
system.cpu.dtb.flushTlbAsid                         0                       # Number of times TLB was flushed by ASID
system.cpu.dtb.flushedEntries                       0                       # Number of entries that have been flushed from TLB
system.cpu.dtb.alignFaults                          0                       # Number of TLB faults due to alignment restrictions
system.cpu.dtb.prefetchFaults                       0                       # Number of TLB faults due to prefetch
system.cpu.dtb.domainFaults                         0                       # Number of TLB faults due to domain restrictions
system.cpu.dtb.permsFaults                          0                       # Number of TLB faults due to permissions restrictions
system.cpu.dtb.readAccesses                         0                       # DTB read accesses
system.cpu.dtb.writeAccesses                        0                       # DTB write accesses
system.cpu.dtb.instAccesses                         0                       # ITB inst accesses
system.cpu.dtb.hits                                 0                       # Total TLB (inst and data) hits
system.cpu.dtb.misses                               0                       # Total TLB (inst and data) misses
system.cpu.dtb.accesses                             0                       # Total TLB (inst and data) accesses
system.cpu.dtb.stage2_mmu.stage2_tlb.instHits            0                       # ITB inst hits
system.cpu.dtb.stage2_mmu.stage2_tlb.instMisses            0                       # ITB inst misses
system.cpu.dtb.stage2_mmu.stage2_tlb.readHits            0                       # DTB read hits
system.cpu.dtb.stage2_mmu.stage2_tlb.readMisses            0                       # DTB read misses
system.cpu.dtb.stage2_mmu.stage2_tlb.writeHits            0                       # DTB write hits
system.cpu.dtb.stage2_mmu.stage2_tlb.writeMisses            0                       # DTB write misses
system.cpu.dtb.stage2_mmu.stage2_tlb.inserts            0                       # Number of times an entry is inserted into the TLB
system.cpu.dtb.stage2_mmu.stage2_tlb.flushTlb            0                       # Number of times complete TLB was flushed
system.cpu.dtb.stage2_mmu.stage2_tlb.flushTlbMva            0                       # Number of times TLB was flushed by MVA
system.cpu.dtb.stage2_mmu.stage2_tlb.flushTlbMvaAsid            0                       # Number of times TLB was flushed by MVA & ASID
system.cpu.dtb.stage2_mmu.stage2_tlb.flushTlbAsid            0                       # Number of times TLB was flushed by ASID
system.cpu.dtb.stage2_mmu.stage2_tlb.flushedEntries            0                       # Number of entries that have been flushed from TLB
system.cpu.dtb.stage2_mmu.stage2_tlb.alignFaults            0                       # Number of TLB faults due to alignment restrictions
system.cpu.dtb.stage2_mmu.stage2_tlb.prefetchFaults            0                       # Number of TLB faults due to prefetch
system.cpu.dtb.stage2_mmu.stage2_tlb.domainFaults            0                       # Number of TLB faults due to domain restrictions
system.cpu.dtb.stage2_mmu.stage2_tlb.permsFaults            0                       # Number of TLB faults due to permissions restrictions
system.cpu.dtb.stage2_mmu.stage2_tlb.readAccesses            0                       # DTB read accesses
system.cpu.dtb.stage2_mmu.stage2_tlb.writeAccesses            0                       # DTB write accesses
system.cpu.dtb.stage2_mmu.stage2_tlb.instAccesses            0                       # ITB inst accesses
system.cpu.dtb.stage2_mmu.stage2_tlb.hits            0                       # Total TLB (inst and data) hits
system.cpu.dtb.stage2_mmu.stage2_tlb.misses            0                       # Total TLB (inst and data) misses
system.cpu.dtb.stage2_mmu.stage2_tlb.accesses            0                       # Total TLB (inst and data) accesses
system.cpu.dtb.stage2_mmu.stage2_tlb.walker.walks            0                       # Table walker walks requested
system.cpu.dtb.stage2_mmu.stage2_tlb.walker.requestOrigin_Requested::Data            0                       # Table walker requests started/completed, data/inst
system.cpu.dtb.stage2_mmu.stage2_tlb.walker.requestOrigin_Requested::Inst            0                       # Table walker requests started/completed, data/inst
system.cpu.dtb.stage2_mmu.stage2_tlb.walker.requestOrigin_Requested::total            0                       # Table walker requests started/completed, data/inst
system.cpu.dtb.stage2_mmu.stage2_tlb.walker.requestOrigin_Completed::Data            0                       # Table walker requests started/completed, data/inst
system.cpu.dtb.stage2_mmu.stage2_tlb.walker.requestOrigin_Completed::Inst            0                       # Table walker requests started/completed, data/inst
system.cpu.dtb.stage2_mmu.stage2_tlb.walker.requestOrigin_Completed::total            0                       # Table walker requests started/completed, data/inst
system.cpu.dtb.stage2_mmu.stage2_tlb.walker.requestOrigin::total            0                       # Table walker requests started/completed, data/inst
system.cpu.dtb.stage2_mmu.stage2_tlb.walker.power_state.pwrStateResidencyTicks::UNDEFINED 118793904000                       # Cumulative time (in ticks) in various power states
system.cpu.dtb.walker.walks                         0                       # Table walker walks requested
system.cpu.dtb.walker.requestOrigin_Requested::Data            0                       # Table walker requests started/completed, data/inst
system.cpu.dtb.walker.requestOrigin_Requested::Inst            0                       # Table walker requests started/completed, data/inst
system.cpu.dtb.walker.requestOrigin_Requested::total            0                       # Table walker requests started/completed, data/inst
system.cpu.dtb.walker.requestOrigin_Completed::Data            0                       # Table walker requests started/completed, data/inst
system.cpu.dtb.walker.requestOrigin_Completed::Inst            0                       # Table walker requests started/completed, data/inst
system.cpu.dtb.walker.requestOrigin_Completed::total            0                       # Table walker requests started/completed, data/inst
system.cpu.dtb.walker.requestOrigin::total            0                       # Table walker requests started/completed, data/inst
system.cpu.dtb.walker.power_state.pwrStateResidencyTicks::UNDEFINED 118793904000                       # Cumulative time (in ticks) in various power states
system.cpu.fetch2.intInstructions            48864055                       # Number of integer instructions successfully decoded
system.cpu.fetch2.fpInstructions                    0                       # Number of floating point instructions successfully decoded
system.cpu.fetch2.vecInstructions                   0                       # Number of SIMD instructions successfully decoded
system.cpu.fetch2.loadInstructions           40551885                       # Number of memory load instructions successfully decoded
system.cpu.fetch2.storeInstructions           6265895                       # Number of memory store instructions successfully decoded
system.cpu.fetch2.amoInstructions                   0                       # Number of memory atomic instructions successfully decoded
system.cpu.icache.demand_hits::.cpu.inst     17281835                       # number of demand (read+write) hits
system.cpu.icache.demand_hits::total         17281835                       # number of demand (read+write) hits
system.cpu.icache.overall_hits::.cpu.inst     17281835                       # number of overall hits
system.cpu.icache.overall_hits::total        17281835                       # number of overall hits
system.cpu.icache.demand_misses::.cpu.inst         6325                       # number of demand (read+write) misses
system.cpu.icache.demand_misses::total           6325                       # number of demand (read+write) misses
system.cpu.icache.overall_misses::.cpu.inst         6325                       # number of overall misses
system.cpu.icache.overall_misses::total          6325                       # number of overall misses
system.cpu.icache.demand_miss_latency::.cpu.inst    264527000                       # number of demand (read+write) miss cycles
system.cpu.icache.demand_miss_latency::total    264527000                       # number of demand (read+write) miss cycles
system.cpu.icache.overall_miss_latency::.cpu.inst    264527000                       # number of overall miss cycles
system.cpu.icache.overall_miss_latency::total    264527000                       # number of overall miss cycles
system.cpu.icache.demand_accesses::.cpu.inst     17288160                       # number of demand (read+write) accesses
system.cpu.icache.demand_accesses::total     17288160                       # number of demand (read+write) accesses
system.cpu.icache.overall_accesses::.cpu.inst     17288160                       # number of overall (read+write) accesses
system.cpu.icache.overall_accesses::total     17288160                       # number of overall (read+write) accesses
system.cpu.icache.demand_miss_rate::.cpu.inst     0.000366                       # miss rate for demand accesses
system.cpu.icache.demand_miss_rate::total     0.000366                       # miss rate for demand accesses
system.cpu.icache.overall_miss_rate::.cpu.inst     0.000366                       # miss rate for overall accesses
system.cpu.icache.overall_miss_rate::total     0.000366                       # miss rate for overall accesses
system.cpu.icache.demand_avg_miss_latency::.cpu.inst 41822.450593                       # average overall miss latency
system.cpu.icache.demand_avg_miss_latency::total 41822.450593                       # average overall miss latency
system.cpu.icache.overall_avg_miss_latency::.cpu.inst 41822.450593                       # average overall miss latency
system.cpu.icache.overall_avg_miss_latency::total 41822.450593                       # average overall miss latency
system.cpu.icache.blocked_cycles::no_mshrs            0                       # number of cycles access was blocked
system.cpu.icache.blocked_cycles::no_targets            0                       # number of cycles access was blocked
system.cpu.icache.blocked::no_mshrs                 0                       # number of cycles access was blocked
system.cpu.icache.blocked::no_targets               0                       # number of cycles access was blocked
system.cpu.icache.avg_blocked_cycles::no_mshrs          nan                       # average number of cycles each access was blocked
system.cpu.icache.avg_blocked_cycles::no_targets          nan                       # average number of cycles each access was blocked
system.cpu.icache.writebacks::.writebacks         5174                       # number of writebacks
system.cpu.icache.writebacks::total              5174                       # number of writebacks
system.cpu.icache.demand_mshr_misses::.cpu.inst         6325                       # number of demand (read+write) MSHR misses
system.cpu.icache.demand_mshr_misses::total         6325                       # number of demand (read+write) MSHR misses
system.cpu.icache.overall_mshr_misses::.cpu.inst         6325                       # number of overall MSHR misses
system.cpu.icache.overall_mshr_misses::total         6325                       # number of overall MSHR misses
system.cpu.icache.demand_mshr_miss_latency::.cpu.inst    251877000                       # number of demand (read+write) MSHR miss cycles
system.cpu.icache.demand_mshr_miss_latency::total    251877000                       # number of demand (read+write) MSHR miss cycles
system.cpu.icache.overall_mshr_miss_latency::.cpu.inst    251877000                       # number of overall MSHR miss cycles
system.cpu.icache.overall_mshr_miss_latency::total    251877000                       # number of overall MSHR miss cycles
system.cpu.icache.demand_mshr_miss_rate::.cpu.inst     0.000366                       # mshr miss rate for demand accesses
system.cpu.icache.demand_mshr_miss_rate::total     0.000366                       # mshr miss rate for demand accesses
system.cpu.icache.overall_mshr_miss_rate::.cpu.inst     0.000366                       # mshr miss rate for overall accesses
system.cpu.icache.overall_mshr_miss_rate::total     0.000366                       # mshr miss rate for overall accesses
system.cpu.icache.demand_avg_mshr_miss_latency::.cpu.inst 39822.450593                       # average overall mshr miss latency
system.cpu.icache.demand_avg_mshr_miss_latency::total 39822.450593                       # average overall mshr miss latency
system.cpu.icache.overall_avg_mshr_miss_latency::.cpu.inst 39822.450593                       # average overall mshr miss latency
system.cpu.icache.overall_avg_mshr_miss_latency::total 39822.450593                       # average overall mshr miss latency
system.cpu.icache.replacements                   5174                       # number of replacements
system.cpu.icache.ReadReq_hits::.cpu.inst     17281835                       # number of ReadReq hits
system.cpu.icache.ReadReq_hits::total        17281835                       # number of ReadReq hits
system.cpu.icache.ReadReq_misses::.cpu.inst         6325                       # number of ReadReq misses
system.cpu.icache.ReadReq_misses::total          6325                       # number of ReadReq misses
system.cpu.icache.ReadReq_miss_latency::.cpu.inst    264527000                       # number of ReadReq miss cycles
system.cpu.icache.ReadReq_miss_latency::total    264527000                       # number of ReadReq miss cycles
system.cpu.icache.ReadReq_accesses::.cpu.inst     17288160                       # number of ReadReq accesses(hits+misses)
system.cpu.icache.ReadReq_accesses::total     17288160                       # number of ReadReq accesses(hits+misses)
system.cpu.icache.ReadReq_miss_rate::.cpu.inst     0.000366                       # miss rate for ReadReq accesses
system.cpu.icache.ReadReq_miss_rate::total     0.000366                       # miss rate for ReadReq accesses
system.cpu.icache.ReadReq_avg_miss_latency::.cpu.inst 41822.450593                       # average ReadReq miss latency
system.cpu.icache.ReadReq_avg_miss_latency::total 41822.450593                       # average ReadReq miss latency
system.cpu.icache.ReadReq_mshr_misses::.cpu.inst         6325                       # number of ReadReq MSHR misses
system.cpu.icache.ReadReq_mshr_misses::total         6325                       # number of ReadReq MSHR misses
system.cpu.icache.ReadReq_mshr_miss_latency::.cpu.inst    251877000                       # number of ReadReq MSHR miss cycles
system.cpu.icache.ReadReq_mshr_miss_latency::total    251877000                       # number of ReadReq MSHR miss cycles
system.cpu.icache.ReadReq_mshr_miss_rate::.cpu.inst     0.000366                       # mshr miss rate for ReadReq accesses
system.cpu.icache.ReadReq_mshr_miss_rate::total     0.000366                       # mshr miss rate for ReadReq accesses
system.cpu.icache.ReadReq_avg_mshr_miss_latency::.cpu.inst 39822.450593                       # average ReadReq mshr miss latency
system.cpu.icache.ReadReq_avg_mshr_miss_latency::total 39822.450593                       # average ReadReq mshr miss latency
system.cpu.icache.power_state.pwrStateResidencyTicks::UNDEFINED 118793904000                       # Cumulative time (in ticks) in various power states
system.cpu.icache.tags.tagsinuse          1145.156712                       # Cycle average of tags in use
system.cpu.icache.tags.total_refs            17288160                       # Total number of references to valid blocks.
system.cpu.icache.tags.sampled_refs              6325                       # Sample count of references to valid blocks.
system.cpu.icache.tags.avg_refs           2733.305929                       # Average number of references to valid blocks.
system.cpu.icache.tags.warmup_cycle            108000                       # Cycle when the warmup percentage was hit.
system.cpu.icache.tags.occ_blocks::.cpu.inst  1145.156712                       # Average occupied blocks per requestor
system.cpu.icache.tags.occ_percent::.cpu.inst     0.559159                       # Average percentage of cache occupancy
system.cpu.icache.tags.occ_percent::total     0.559159                       # Average percentage of cache occupancy
system.cpu.icache.tags.occ_task_id_blocks::1024         1151                       # Occupied blocks per task id
system.cpu.icache.tags.age_task_id_blocks_1024::4         1151                       # Occupied blocks per task id
system.cpu.icache.tags.occ_task_id_percent::1024     0.562012                       # Percentage of cache occupancy per task id
system.cpu.icache.tags.tag_accesses          17294485                       # Number of tag accesses
system.cpu.icache.tags.data_accesses         17294485                       # Number of data accesses
system.cpu.icache.tags.power_state.pwrStateResidencyTicks::UNDEFINED 118793904000                       # Cumulative time (in ticks) in various power states
system.cpu.itb.instHits                             0                       # ITB inst hits
system.cpu.itb.instMisses                           0                       # ITB inst misses
system.cpu.itb.readHits                             0                       # DTB read hits
system.cpu.itb.readMisses                           0                       # DTB read misses
system.cpu.itb.writeHits                            0                       # DTB write hits
system.cpu.itb.writeMisses                          0                       # DTB write misses
system.cpu.itb.inserts                              0                       # Number of times an entry is inserted into the TLB
system.cpu.itb.flushTlb                             0                       # Number of times complete TLB was flushed
system.cpu.itb.flushTlbMva                          0                       # Number of times TLB was flushed by MVA
system.cpu.itb.flushTlbMvaAsid                      0                       # Number of times TLB was flushed by MVA & ASID
system.cpu.itb.flushTlbAsid                         0                       # Number of times TLB was flushed by ASID
system.cpu.itb.flushedEntries                       0                       # Number of entries that have been flushed from TLB
system.cpu.itb.alignFaults                          0                       # Number of TLB faults due to alignment restrictions
system.cpu.itb.prefetchFaults                       0                       # Number of TLB faults due to prefetch
system.cpu.itb.domainFaults                         0                       # Number of TLB faults due to domain restrictions
system.cpu.itb.permsFaults                          0                       # Number of TLB faults due to permissions restrictions
system.cpu.itb.readAccesses                         0                       # DTB read accesses
system.cpu.itb.writeAccesses                        0                       # DTB write accesses
system.cpu.itb.instAccesses                         0                       # ITB inst accesses
system.cpu.itb.hits                                 0                       # Total TLB (inst and data) hits
system.cpu.itb.misses                               0                       # Total TLB (inst and data) misses
system.cpu.itb.accesses                             0                       # Total TLB (inst and data) accesses
system.cpu.itb.stage2_mmu.stage2_tlb.instHits            0                       # ITB inst hits
system.cpu.itb.stage2_mmu.stage2_tlb.instMisses            0                       # ITB inst misses
system.cpu.itb.stage2_mmu.stage2_tlb.readHits            0                       # DTB read hits
system.cpu.itb.stage2_mmu.stage2_tlb.readMisses            0                       # DTB read misses
system.cpu.itb.stage2_mmu.stage2_tlb.writeHits            0                       # DTB write hits
system.cpu.itb.stage2_mmu.stage2_tlb.writeMisses            0                       # DTB write misses
system.cpu.itb.stage2_mmu.stage2_tlb.inserts            0                       # Number of times an entry is inserted into the TLB
system.cpu.itb.stage2_mmu.stage2_tlb.flushTlb            0                       # Number of times complete TLB was flushed
system.cpu.itb.stage2_mmu.stage2_tlb.flushTlbMva            0                       # Number of times TLB was flushed by MVA
system.cpu.itb.stage2_mmu.stage2_tlb.flushTlbMvaAsid            0                       # Number of times TLB was flushed by MVA & ASID
system.cpu.itb.stage2_mmu.stage2_tlb.flushTlbAsid            0                       # Number of times TLB was flushed by ASID
system.cpu.itb.stage2_mmu.stage2_tlb.flushedEntries            0                       # Number of entries that have been flushed from TLB
system.cpu.itb.stage2_mmu.stage2_tlb.alignFaults            0                       # Number of TLB faults due to alignment restrictions
system.cpu.itb.stage2_mmu.stage2_tlb.prefetchFaults            0                       # Number of TLB faults due to prefetch
system.cpu.itb.stage2_mmu.stage2_tlb.domainFaults            0                       # Number of TLB faults due to domain restrictions
system.cpu.itb.stage2_mmu.stage2_tlb.permsFaults            0                       # Number of TLB faults due to permissions restrictions
system.cpu.itb.stage2_mmu.stage2_tlb.readAccesses            0                       # DTB read accesses
system.cpu.itb.stage2_mmu.stage2_tlb.writeAccesses            0                       # DTB write accesses
system.cpu.itb.stage2_mmu.stage2_tlb.instAccesses            0                       # ITB inst accesses
system.cpu.itb.stage2_mmu.stage2_tlb.hits            0                       # Total TLB (inst and data) hits
system.cpu.itb.stage2_mmu.stage2_tlb.misses            0                       # Total TLB (inst and data) misses
system.cpu.itb.stage2_mmu.stage2_tlb.accesses            0                       # Total TLB (inst and data) accesses
system.cpu.itb.stage2_mmu.stage2_tlb.walker.walks            0                       # Table walker walks requested
system.cpu.itb.stage2_mmu.stage2_tlb.walker.requestOrigin_Requested::Data            0                       # Table walker requests started/completed, data/inst
system.cpu.itb.stage2_mmu.stage2_tlb.walker.requestOrigin_Requested::Inst            0                       # Table walker requests started/completed, data/inst
system.cpu.itb.stage2_mmu.stage2_tlb.walker.requestOrigin_Requested::total            0                       # Table walker requests started/completed, data/inst
system.cpu.itb.stage2_mmu.stage2_tlb.walker.requestOrigin_Completed::Data            0                       # Table walker requests started/completed, data/inst
system.cpu.itb.stage2_mmu.stage2_tlb.walker.requestOrigin_Completed::Inst            0                       # Table walker requests started/completed, data/inst
system.cpu.itb.stage2_mmu.stage2_tlb.walker.requestOrigin_Completed::total            0                       # Table walker requests started/completed, data/inst
system.cpu.itb.stage2_mmu.stage2_tlb.walker.requestOrigin::total            0                       # Table walker requests started/completed, data/inst
system.cpu.itb.stage2_mmu.stage2_tlb.walker.power_state.pwrStateResidencyTicks::UNDEFINED 118793904000                       # Cumulative time (in ticks) in various power states
system.cpu.itb.walker.walks                         0                       # Table walker walks requested
system.cpu.itb.walker.requestOrigin_Requested::Data            0                       # Table walker requests started/completed, data/inst
system.cpu.itb.walker.requestOrigin_Requested::Inst            0                       # Table walker requests started/completed, data/inst
system.cpu.itb.walker.requestOrigin_Requested::total            0                       # Table walker requests started/completed, data/inst
system.cpu.itb.walker.requestOrigin_Completed::Data            0                       # Table walker requests started/completed, data/inst
system.cpu.itb.walker.requestOrigin_Completed::Inst            0                       # Table walker requests started/completed, data/inst
system.cpu.itb.walker.requestOrigin_Completed::total            0                       # Table walker requests started/completed, data/inst
system.cpu.itb.walker.requestOrigin::total            0                       # Table walker requests started/completed, data/inst
system.cpu.itb.walker.power_state.pwrStateResidencyTicks::UNDEFINED 118793904000                       # Cumulative time (in ticks) in various power states
system.cpu.power_state.pwrStateResidencyTicks::ON 118793904000                       # Cumulative time (in ticks) in various power states
system.cpu.thread_0.numInsts                100000000                       # Number of Instructions committed
system.cpu.thread_0.numOps                  101102730                       # Number of Ops committed
system.cpu.thread_0.numMemRefs                      0                       # Number of Memory References
system.cpu_clk_domain.clock                      1000                       # Clock period in ticks
system.cpu_voltage_domain.voltage                   1                       # Voltage in Volts
system.l2.demand_hits::.cpu.inst                 5020                       # number of demand (read+write) hits
system.l2.demand_hits::.cpu.data                51598                       # number of demand (read+write) hits
system.l2.demand_hits::total                    56618                       # number of demand (read+write) hits
system.l2.overall_hits::.cpu.inst                5020                       # number of overall hits
system.l2.overall_hits::.cpu.data               51598                       # number of overall hits
system.l2.overall_hits::total                   56618                       # number of overall hits
system.l2.demand_misses::.cpu.inst               1305                       # number of demand (read+write) misses
system.l2.demand_misses::.cpu.data               4192                       # number of demand (read+write) misses
system.l2.demand_misses::total                   5497                       # number of demand (read+write) misses
system.l2.overall_misses::.cpu.inst              1305                       # number of overall misses
system.l2.overall_misses::.cpu.data              4192                       # number of overall misses
system.l2.overall_misses::total                  5497                       # number of overall misses
system.l2.demand_miss_latency::.cpu.inst    126397000                       # number of demand (read+write) miss cycles
system.l2.demand_miss_latency::.cpu.data    411034000                       # number of demand (read+write) miss cycles
system.l2.demand_miss_latency::total        537431000                       # number of demand (read+write) miss cycles
system.l2.overall_miss_latency::.cpu.inst    126397000                       # number of overall miss cycles
system.l2.overall_miss_latency::.cpu.data    411034000                       # number of overall miss cycles
system.l2.overall_miss_latency::total       537431000                       # number of overall miss cycles
system.l2.demand_accesses::.cpu.inst             6325                       # number of demand (read+write) accesses
system.l2.demand_accesses::.cpu.data            55790                       # number of demand (read+write) accesses
system.l2.demand_accesses::total                62115                       # number of demand (read+write) accesses
system.l2.overall_accesses::.cpu.inst            6325                       # number of overall (read+write) accesses
system.l2.overall_accesses::.cpu.data           55790                       # number of overall (read+write) accesses
system.l2.overall_accesses::total               62115                       # number of overall (read+write) accesses
system.l2.demand_miss_rate::.cpu.inst        0.206324                       # miss rate for demand accesses
system.l2.demand_miss_rate::.cpu.data        0.075139                       # miss rate for demand accesses
system.l2.demand_miss_rate::total            0.088497                       # miss rate for demand accesses
system.l2.overall_miss_rate::.cpu.inst       0.206324                       # miss rate for overall accesses
system.l2.overall_miss_rate::.cpu.data       0.075139                       # miss rate for overall accesses
system.l2.overall_miss_rate::total           0.088497                       # miss rate for overall accesses
system.l2.demand_avg_miss_latency::.cpu.inst 96855.938697                       # average overall miss latency
system.l2.demand_avg_miss_latency::.cpu.data 98052.003817                       # average overall miss latency
system.l2.demand_avg_miss_latency::total 97768.055303                       # average overall miss latency
system.l2.overall_avg_miss_latency::.cpu.inst 96855.938697                       # average overall miss latency
system.l2.overall_avg_miss_latency::.cpu.data 98052.003817                       # average overall miss latency
system.l2.overall_avg_miss_latency::total 97768.055303                       # average overall miss latency
system.l2.blocked_cycles::no_mshrs                  0                       # number of cycles access was blocked
system.l2.blocked_cycles::no_targets                0                       # number of cycles access was blocked
system.l2.blocked::no_mshrs                         0                       # number of cycles access was blocked
system.l2.blocked::no_targets                       0                       # number of cycles access was blocked
system.l2.avg_blocked_cycles::no_mshrs            nan                       # average number of cycles each access was blocked
system.l2.avg_blocked_cycles::no_targets          nan                       # average number of cycles each access was blocked
system.l2.demand_mshr_hits::.cpu.inst               1                       # number of demand (read+write) MSHR hits
system.l2.demand_mshr_hits::.cpu.data               6                       # number of demand (read+write) MSHR hits
system.l2.demand_mshr_hits::total                   7                       # number of demand (read+write) MSHR hits
system.l2.overall_mshr_hits::.cpu.inst              1                       # number of overall MSHR hits
system.l2.overall_mshr_hits::.cpu.data              6                       # number of overall MSHR hits
system.l2.overall_mshr_hits::total                  7                       # number of overall MSHR hits
system.l2.demand_mshr_misses::.cpu.inst          1304                       # number of demand (read+write) MSHR misses
system.l2.demand_mshr_misses::.cpu.data          4186                       # number of demand (read+write) MSHR misses
system.l2.demand_mshr_misses::total              5490                       # number of demand (read+write) MSHR misses
system.l2.overall_mshr_misses::.cpu.inst         1304                       # number of overall MSHR misses
system.l2.overall_mshr_misses::.cpu.data         4186                       # number of overall MSHR misses
system.l2.overall_mshr_misses::total             5490                       # number of overall MSHR misses
system.l2.demand_mshr_miss_latency::.cpu.inst    100238000                       # number of demand (read+write) MSHR miss cycles
system.l2.demand_mshr_miss_latency::.cpu.data    326863000                       # number of demand (read+write) MSHR miss cycles
system.l2.demand_mshr_miss_latency::total    427101000                       # number of demand (read+write) MSHR miss cycles
system.l2.overall_mshr_miss_latency::.cpu.inst    100238000                       # number of overall MSHR miss cycles
system.l2.overall_mshr_miss_latency::.cpu.data    326863000                       # number of overall MSHR miss cycles
system.l2.overall_mshr_miss_latency::total    427101000                       # number of overall MSHR miss cycles
system.l2.demand_mshr_miss_rate::.cpu.inst     0.206166                       # mshr miss rate for demand accesses
system.l2.demand_mshr_miss_rate::.cpu.data     0.075031                       # mshr miss rate for demand accesses
system.l2.demand_mshr_miss_rate::total       0.088384                       # mshr miss rate for demand accesses
system.l2.overall_mshr_miss_rate::.cpu.inst     0.206166                       # mshr miss rate for overall accesses
system.l2.overall_mshr_miss_rate::.cpu.data     0.075031                       # mshr miss rate for overall accesses
system.l2.overall_mshr_miss_rate::total      0.088384                       # mshr miss rate for overall accesses
system.l2.demand_avg_mshr_miss_latency::.cpu.inst 76869.631902                       # average overall mshr miss latency
system.l2.demand_avg_mshr_miss_latency::.cpu.data 78084.806498                       # average overall mshr miss latency
system.l2.demand_avg_mshr_miss_latency::total 77796.174863                       # average overall mshr miss latency
system.l2.overall_avg_mshr_miss_latency::.cpu.inst 76869.631902                       # average overall mshr miss latency
system.l2.overall_avg_mshr_miss_latency::.cpu.data 78084.806498                       # average overall mshr miss latency
system.l2.overall_avg_mshr_miss_latency::total 77796.174863                       # average overall mshr miss latency
system.l2.replacements                              0                       # number of replacements
system.l2.WritebackDirty_hits::.writebacks        51959                       # number of WritebackDirty hits
system.l2.WritebackDirty_hits::total            51959                       # number of WritebackDirty hits
system.l2.WritebackDirty_accesses::.writebacks        51959                       # number of WritebackDirty accesses(hits+misses)
system.l2.WritebackDirty_accesses::total        51959                       # number of WritebackDirty accesses(hits+misses)
system.l2.WritebackClean_hits::.writebacks         4679                       # number of WritebackClean hits
system.l2.WritebackClean_hits::total             4679                       # number of WritebackClean hits
system.l2.WritebackClean_accesses::.writebacks         4679                       # number of WritebackClean accesses(hits+misses)
system.l2.WritebackClean_accesses::total         4679                       # number of WritebackClean accesses(hits+misses)
system.l2.ReadExReq_hits::.cpu.data             29538                       # number of ReadExReq hits
system.l2.ReadExReq_hits::total                 29538                       # number of ReadExReq hits
system.l2.ReadExReq_misses::.cpu.data            3666                       # number of ReadExReq misses
system.l2.ReadExReq_misses::total                3666                       # number of ReadExReq misses
system.l2.ReadExReq_miss_latency::.cpu.data    358402000                       # number of ReadExReq miss cycles
system.l2.ReadExReq_miss_latency::total     358402000                       # number of ReadExReq miss cycles
system.l2.ReadExReq_accesses::.cpu.data         33204                       # number of ReadExReq accesses(hits+misses)
system.l2.ReadExReq_accesses::total             33204                       # number of ReadExReq accesses(hits+misses)
system.l2.ReadExReq_miss_rate::.cpu.data     0.110408                       # miss rate for ReadExReq accesses
system.l2.ReadExReq_miss_rate::total         0.110408                       # miss rate for ReadExReq accesses
system.l2.ReadExReq_avg_miss_latency::.cpu.data 97763.775232                       # average ReadExReq miss latency
system.l2.ReadExReq_avg_miss_latency::total 97763.775232                       # average ReadExReq miss latency
system.l2.ReadExReq_mshr_misses::.cpu.data         3666                       # number of ReadExReq MSHR misses
system.l2.ReadExReq_mshr_misses::total           3666                       # number of ReadExReq MSHR misses
system.l2.ReadExReq_mshr_miss_latency::.cpu.data    285082000                       # number of ReadExReq MSHR miss cycles
system.l2.ReadExReq_mshr_miss_latency::total    285082000                       # number of ReadExReq MSHR miss cycles
system.l2.ReadExReq_mshr_miss_rate::.cpu.data     0.110408                       # mshr miss rate for ReadExReq accesses
system.l2.ReadExReq_mshr_miss_rate::total     0.110408                       # mshr miss rate for ReadExReq accesses
system.l2.ReadExReq_avg_mshr_miss_latency::.cpu.data 77763.775232                       # average ReadExReq mshr miss latency
system.l2.ReadExReq_avg_mshr_miss_latency::total 77763.775232                       # average ReadExReq mshr miss latency
system.l2.ReadCleanReq_hits::.cpu.inst           5020                       # number of ReadCleanReq hits
system.l2.ReadCleanReq_hits::total               5020                       # number of ReadCleanReq hits
system.l2.ReadCleanReq_misses::.cpu.inst         1305                       # number of ReadCleanReq misses
system.l2.ReadCleanReq_misses::total             1305                       # number of ReadCleanReq misses
system.l2.ReadCleanReq_miss_latency::.cpu.inst    126397000                       # number of ReadCleanReq miss cycles
system.l2.ReadCleanReq_miss_latency::total    126397000                       # number of ReadCleanReq miss cycles
system.l2.ReadCleanReq_accesses::.cpu.inst         6325                       # number of ReadCleanReq accesses(hits+misses)
system.l2.ReadCleanReq_accesses::total           6325                       # number of ReadCleanReq accesses(hits+misses)
system.l2.ReadCleanReq_miss_rate::.cpu.inst     0.206324                       # miss rate for ReadCleanReq accesses
system.l2.ReadCleanReq_miss_rate::total      0.206324                       # miss rate for ReadCleanReq accesses
system.l2.ReadCleanReq_avg_miss_latency::.cpu.inst 96855.938697                       # average ReadCleanReq miss latency
system.l2.ReadCleanReq_avg_miss_latency::total 96855.938697                       # average ReadCleanReq miss latency
system.l2.ReadCleanReq_mshr_hits::.cpu.inst            1                       # number of ReadCleanReq MSHR hits
system.l2.ReadCleanReq_mshr_hits::total             1                       # number of ReadCleanReq MSHR hits
system.l2.ReadCleanReq_mshr_misses::.cpu.inst         1304                       # number of ReadCleanReq MSHR misses
system.l2.ReadCleanReq_mshr_misses::total         1304                       # number of ReadCleanReq MSHR misses
system.l2.ReadCleanReq_mshr_miss_latency::.cpu.inst    100238000                       # number of ReadCleanReq MSHR miss cycles
system.l2.ReadCleanReq_mshr_miss_latency::total    100238000                       # number of ReadCleanReq MSHR miss cycles
system.l2.ReadCleanReq_mshr_miss_rate::.cpu.inst     0.206166                       # mshr miss rate for ReadCleanReq accesses
system.l2.ReadCleanReq_mshr_miss_rate::total     0.206166                       # mshr miss rate for ReadCleanReq accesses
system.l2.ReadCleanReq_avg_mshr_miss_latency::.cpu.inst 76869.631902                       # average ReadCleanReq mshr miss latency
system.l2.ReadCleanReq_avg_mshr_miss_latency::total 76869.631902                       # average ReadCleanReq mshr miss latency
system.l2.ReadSharedReq_hits::.cpu.data         22060                       # number of ReadSharedReq hits
system.l2.ReadSharedReq_hits::total             22060                       # number of ReadSharedReq hits
system.l2.ReadSharedReq_misses::.cpu.data          526                       # number of ReadSharedReq misses
system.l2.ReadSharedReq_misses::total             526                       # number of ReadSharedReq misses
system.l2.ReadSharedReq_miss_latency::.cpu.data     52632000                       # number of ReadSharedReq miss cycles
system.l2.ReadSharedReq_miss_latency::total     52632000                       # number of ReadSharedReq miss cycles
system.l2.ReadSharedReq_accesses::.cpu.data        22586                       # number of ReadSharedReq accesses(hits+misses)
system.l2.ReadSharedReq_accesses::total         22586                       # number of ReadSharedReq accesses(hits+misses)
system.l2.ReadSharedReq_miss_rate::.cpu.data     0.023289                       # miss rate for ReadSharedReq accesses
system.l2.ReadSharedReq_miss_rate::total     0.023289                       # miss rate for ReadSharedReq accesses
system.l2.ReadSharedReq_avg_miss_latency::.cpu.data 100060.836502                       # average ReadSharedReq miss latency
system.l2.ReadSharedReq_avg_miss_latency::total 100060.836502                       # average ReadSharedReq miss latency
system.l2.ReadSharedReq_mshr_hits::.cpu.data            6                       # number of ReadSharedReq MSHR hits
system.l2.ReadSharedReq_mshr_hits::total            6                       # number of ReadSharedReq MSHR hits
system.l2.ReadSharedReq_mshr_misses::.cpu.data          520                       # number of ReadSharedReq MSHR misses
system.l2.ReadSharedReq_mshr_misses::total          520                       # number of ReadSharedReq MSHR misses
system.l2.ReadSharedReq_mshr_miss_latency::.cpu.data     41781000                       # number of ReadSharedReq MSHR miss cycles
system.l2.ReadSharedReq_mshr_miss_latency::total     41781000                       # number of ReadSharedReq MSHR miss cycles
system.l2.ReadSharedReq_mshr_miss_rate::.cpu.data     0.023023                       # mshr miss rate for ReadSharedReq accesses
system.l2.ReadSharedReq_mshr_miss_rate::total     0.023023                       # mshr miss rate for ReadSharedReq accesses
system.l2.ReadSharedReq_avg_mshr_miss_latency::.cpu.data 80348.076923                       # average ReadSharedReq mshr miss latency
system.l2.ReadSharedReq_avg_mshr_miss_latency::total 80348.076923                       # average ReadSharedReq mshr miss latency
system.l2.power_state.pwrStateResidencyTicks::UNDEFINED 118793904000                       # Cumulative time (in ticks) in various power states
system.l2.tags.tagsinuse                  5288.288930                       # Cycle average of tags in use
system.l2.tags.total_refs                      119705                       # Total number of references to valid blocks.
system.l2.tags.sampled_refs                      5490                       # Sample count of references to valid blocks.
system.l2.tags.avg_refs                     21.804189                       # Average number of references to valid blocks.
system.l2.tags.warmup_cycle                     87000                       # Cycle when the warmup percentage was hit.
system.l2.tags.occ_blocks::.cpu.inst      1297.497478                       # Average occupied blocks per requestor
system.l2.tags.occ_blocks::.cpu.data      3990.791452                       # Average occupied blocks per requestor
system.l2.tags.occ_percent::.cpu.inst        0.039596                       # Average percentage of cache occupancy
system.l2.tags.occ_percent::.cpu.data        0.121789                       # Average percentage of cache occupancy
system.l2.tags.occ_percent::total            0.161386                       # Average percentage of cache occupancy
system.l2.tags.occ_task_id_blocks::1024          5490                       # Occupied blocks per task id
system.l2.tags.age_task_id_blocks_1024::4         5490                       # Occupied blocks per task id
system.l2.tags.occ_task_id_percent::1024     0.167542                       # Percentage of cache occupancy per task id
system.l2.tags.tag_accesses                    244914                       # Number of tag accesses
system.l2.tags.data_accesses                   244914                       # Number of data accesses
system.l2.tags.power_state.pwrStateResidencyTicks::UNDEFINED 118793904000                       # Cumulative time (in ticks) in various power states
system.mem_ctrls.avgPriority_.cpu.inst::samples      1304.00                       # Average QoS priority value for accepted requests
system.mem_ctrls.avgPriority_.cpu.data::samples      4186.00                       # Average QoS priority value for accepted requests
system.mem_ctrls.priorityMinLatency      0.000000018750                       # per QoS priority minimum request to response latency (s)
system.mem_ctrls.priorityMaxLatency      0.000000579500                       # per QoS priority maximum request to response latency (s)
system.mem_ctrls.numReadWriteTurnArounds            0                       # Number of turnarounds from READ to WRITE
system.mem_ctrls.numWriteReadTurnArounds            0                       # Number of turnarounds from WRITE to READ
system.mem_ctrls.numStayReadState               41487                       # Number of times bus staying in READ state
system.mem_ctrls.numStayWriteState                  0                       # Number of times bus staying in WRITE state
system.mem_ctrls.readReqs                        5490                       # Number of read requests accepted
system.mem_ctrls.writeReqs                          0                       # Number of write requests accepted
system.mem_ctrls.readBursts                      5490                       # Number of controller read bursts, including those serviced by the write queue
system.mem_ctrls.writeBursts                        0                       # Number of controller write bursts, including those merged in the write queue
system.mem_ctrls.servicedByWrQ                      0                       # Number of controller read bursts serviced by the write queue
system.mem_ctrls.mergedWrBursts                     0                       # Number of controller write bursts merged with an existing one
system.mem_ctrls.neitherReadNorWriteReqs            0                       # Number of requests that are neither read nor write
system.mem_ctrls.avgRdQLen                       1.00                       # Average read queue length when enqueuing
system.mem_ctrls.avgWrQLen                       0.00                       # Average write queue length when enqueuing
system.mem_ctrls.numRdRetry                         0                       # Number of times read queue was full causing retry
system.mem_ctrls.numWrRetry                         0                       # Number of times write queue was full causing retry
system.mem_ctrls.readPktSize::0                     0                       # Read request sizes (log2)
system.mem_ctrls.readPktSize::1                     0                       # Read request sizes (log2)
system.mem_ctrls.readPktSize::2                     0                       # Read request sizes (log2)
system.mem_ctrls.readPktSize::3                     0                       # Read request sizes (log2)
system.mem_ctrls.readPktSize::4                     0                       # Read request sizes (log2)
system.mem_ctrls.readPktSize::5                     0                       # Read request sizes (log2)
system.mem_ctrls.readPktSize::6                  5490                       # Read request sizes (log2)
system.mem_ctrls.writePktSize::0                    0                       # Write request sizes (log2)
system.mem_ctrls.writePktSize::1                    0                       # Write request sizes (log2)
system.mem_ctrls.writePktSize::2                    0                       # Write request sizes (log2)
system.mem_ctrls.writePktSize::3                    0                       # Write request sizes (log2)
system.mem_ctrls.writePktSize::4                    0                       # Write request sizes (log2)
system.mem_ctrls.writePktSize::5                    0                       # Write request sizes (log2)
[...]
system.mem_ctrls.dram.bw_read::.cpu.data      2255200                       # Total read bandwidth from this memory (bytes/s)
system.mem_ctrls.dram.bw_read::total          2957728                       # Total read bandwidth from this memory (bytes/s)
system.mem_ctrls.dram.bw_inst_read::.cpu.inst       702528                       # Instruction read bandwidth from this memory (bytes/s)
system.mem_ctrls.dram.bw_inst_read::total       702528                       # Instruction read bandwidth from this memory (bytes/s)
system.mem_ctrls.dram.bw_total::.cpu.inst       702528                       # Total bandwidth to/from this memory (bytes/s)
system.mem_ctrls.dram.bw_total::.cpu.data      2255200                       # Total bandwidth to/from this memory (bytes/s)
system.mem_ctrls.dram.bw_total::total         2957728                       # Total bandwidth to/from this memory (bytes/s)
system.mem_ctrls.dram.readBursts                 5490                       # Number of DRAM read bursts
system.mem_ctrls.dram.writeBursts                   0                       # Number of DRAM write bursts
system.mem_ctrls.dram.perBankRdBursts::0          253                       # Per bank write bursts
system.mem_ctrls.dram.perBankRdBursts::1          274                       # Per bank write bursts
system.mem_ctrls.dram.perBankRdBursts::2          245                       # Per bank write bursts
system.mem_ctrls.dram.perBankRdBursts::3          403                       # Per bank write bursts
system.mem_ctrls.dram.perBankRdBursts::4          418                       # Per bank write bursts
system.mem_ctrls.dram.perBankRdBursts::5          373                       # Per bank write bursts
system.mem_ctrls.dram.perBankRdBursts::6          377                       # Per bank write bursts
system.mem_ctrls.dram.perBankRdBursts::7          400                       # Per bank write bursts
system.mem_ctrls.dram.perBankRdBursts::8          359                       # Per bank write bursts
system.mem_ctrls.dram.perBankRdBursts::9          291                       # Per bank write bursts
system.mem_ctrls.dram.perBankRdBursts::10          427                       # Per bank write bursts
system.mem_ctrls.dram.perBankRdBursts::11          288                       # Per bank write bursts
system.mem_ctrls.dram.perBankRdBursts::12          311                       # Per bank write bursts
system.mem_ctrls.dram.perBankRdBursts::13          339                       # Per bank write bursts
system.mem_ctrls.dram.perBankRdBursts::14          399                       # Per bank write bursts
system.mem_ctrls.dram.perBankRdBursts::15          333                       # Per bank write bursts
system.mem_ctrls.dram.perBankWrBursts::0            0                       # Per bank write bursts
system.mem_ctrls.dram.perBankWrBursts::1            0                       # Per bank write bursts
system.mem_ctrls.dram.perBankWrBursts::2            0                       # Per bank write bursts
system.mem_ctrls.dram.perBankWrBursts::3            0                       # Per bank write bursts
system.mem_ctrls.dram.perBankWrBursts::4            0                       # Per bank write bursts
system.mem_ctrls.dram.perBankWrBursts::5            0                       # Per bank write bursts
system.mem_ctrls.dram.perBankWrBursts::6            0                       # Per bank write bursts
system.mem_ctrls.dram.perBankWrBursts::7            0                       # Per bank write bursts
system.mem_ctrls.dram.perBankWrBursts::8            0                       # Per bank write bursts
system.mem_ctrls.dram.perBankWrBursts::9            0                       # Per bank write bursts
system.mem_ctrls.dram.perBankWrBursts::10            0                       # Per bank write bursts
system.mem_ctrls.dram.perBankWrBursts::11            0                       # Per bank write bursts
system.mem_ctrls.dram.perBankWrBursts::12            0                       # Per bank write bursts
system.mem_ctrls.dram.perBankWrBursts::13            0                       # Per bank write bursts
system.mem_ctrls.dram.perBankWrBursts::14            0                       # Per bank write bursts
system.mem_ctrls.dram.perBankWrBursts::15            0                       # Per bank write bursts
system.mem_ctrls.dram.totQLat                42400000                       # Total ticks spent queuing
system.mem_ctrls.dram.totBusLat              27450000                       # Total ticks spent in databus transfers
system.mem_ctrls.dram.totMemAccLat          145337500                       # Total ticks spent from burst creation until serviced by the DRAM
system.mem_ctrls.dram.avgQLat                 7723.13                       # Average queueing delay per DRAM burst
system.mem_ctrls.dram.avgBusLat               5000.00                       # Average bus latency per DRAM burst
system.mem_ctrls.dram.avgMemAccLat           26473.13                       # Average memory access latency per DRAM burst
system.mem_ctrls.dram.readRowHits                4008                       # Number of row buffer hits during reads
system.mem_ctrls.dram.writeRowHits                  0                       # Number of row buffer hits during writes
system.mem_ctrls.dram.readRowHitRate            73.01                       # Row buffer hit rate for reads
system.mem_ctrls.dram.writeRowHitRate             nan                       # Row buffer hit rate for writes
system.mem_ctrls.dram.bytesPerActivate::samples         1482                       # Bytes accessed per row activation
system.mem_ctrls.dram.bytesPerActivate::mean   237.085020                       # Bytes accessed per row activation
system.mem_ctrls.dram.bytesPerActivate::gmean   154.116980                       # Bytes accessed per row activation
system.mem_ctrls.dram.bytesPerActivate::stdev   268.066989                       # Bytes accessed per row activation
system.mem_ctrls.dram.bytesPerActivate::0-127          517     34.89%     34.89% # Bytes accessed per row activation
system.mem_ctrls.dram.bytesPerActivate::128-255          535     36.10%     70.99% # Bytes accessed per row activation
system.mem_ctrls.dram.bytesPerActivate::256-383          197     13.29%     84.28% # Bytes accessed per row activation
system.mem_ctrls.dram.bytesPerActivate::384-511           46      3.10%     87.38% # Bytes accessed per row activation
system.mem_ctrls.dram.bytesPerActivate::512-639           24      1.62%     89.00% # Bytes accessed per row activation
system.mem_ctrls.dram.bytesPerActivate::640-767           24      1.62%     90.62% # Bytes accessed per row activation
system.mem_ctrls.dram.bytesPerActivate::768-895           18      1.21%     91.84% # Bytes accessed per row activation
system.mem_ctrls.dram.bytesPerActivate::896-1023           18      1.21%     93.05% # Bytes accessed per row activation
system.mem_ctrls.dram.bytesPerActivate::1024-1151          103      6.95%    100.00% # Bytes accessed per row activation
system.mem_ctrls.dram.bytesPerActivate::total         1482                       # Bytes accessed per row activation
system.mem_ctrls.dram.bytesRead                351360                       # Total number of bytes read from DRAM
system.mem_ctrls.dram.bytesWritten                  0                       # Total number of bytes written to DRAM
system.mem_ctrls.dram.avgRdBW                2.957728                       # Average DRAM read bandwidth in MiBytes/s
system.mem_ctrls.dram.avgWrBW                       0                       # Average DRAM write bandwidth in MiBytes/s
system.mem_ctrls.dram.peakBW                 12800.00                       # Theoretical peak bandwidth in MiByte/s
system.mem_ctrls.dram.busUtil                    0.02                       # Data bus utilization in percentage
system.mem_ctrls.dram.busUtilRead                0.02                       # Data bus utilization in percentage for reads
system.mem_ctrls.dram.busUtilWrite               0.00                       # Data bus utilization in percentage for writes
system.mem_ctrls.dram.pageHitRate               73.01                       # Row buffer hit rate, read and write combined
system.mem_ctrls.dram.power_state.pwrStateResidencyTicks::UNDEFINED 118793904000                       # Cumulative time (in ticks) in various power states
system.mem_ctrls.dram.rank0.actEnergy         5397840                       # Energy for activate commands per rank (pJ)
system.mem_ctrls.dram.rank0.preEnergy         2869020                       # Energy for precharge commands per rank (pJ)
system.mem_ctrls.dram.rank0.readEnergy       19585020                       # Energy for read commands per rank (pJ)
system.mem_ctrls.dram.rank0.writeEnergy             0                       # Energy for write commands per rank (pJ)
system.mem_ctrls.dram.rank0.refreshEnergy 9376947840.000002                       # Energy for refresh commands per rank (pJ)
system.mem_ctrls.dram.rank0.actBackEnergy   2724021450                       # Energy for active background per rank (pJ)
system.mem_ctrls.dram.rank0.preBackEnergy  43322946720                       # Energy for precharge background per rank (pJ)
system.mem_ctrls.dram.rank0.actPowerDownEnergy            0                       # Energy for active power-down per rank (pJ)
system.mem_ctrls.dram.rank0.prePowerDownEnergy            0                       # Energy for precharge power-down per rank (pJ)
system.mem_ctrls.dram.rank0.selfRefreshEnergy            0                       # Energy for self refresh per rank (pJ)
system.mem_ctrls.dram.rank0.totalEnergy   55451767890                       # Total energy per rank (pJ)
system.mem_ctrls.dram.rank0.averagePower   466.789675                       # Core power per rank (mW)
system.mem_ctrls.dram.rank0.totalIdleTime            0                       # Total Idle time Per DRAM Rank
system.mem_ctrls.dram.rank0.pwrStateTime::IDLE 112604389750                       # Time in different power states
system.mem_ctrls.dram.rank0.pwrStateTime::REF   3966560000                       # Time in different power states
system.mem_ctrls.dram.rank0.pwrStateTime::SREF            0                       # Time in different power states
system.mem_ctrls.dram.rank0.pwrStateTime::PRE_PDN            0                       # Time in different power states
system.mem_ctrls.dram.rank0.pwrStateTime::ACT   2222954250                       # Time in different power states
system.mem_ctrls.dram.rank0.pwrStateTime::ACT_PDN            0                       # Time in different power states
system.mem_ctrls.dram.rank1.actEnergy         5183640                       # Energy for activate commands per rank (pJ)
system.mem_ctrls.dram.rank1.preEnergy         2755170                       # Energy for precharge commands per rank (pJ)
system.mem_ctrls.dram.rank1.readEnergy       19613580                       # Energy for read commands per rank (pJ)
system.mem_ctrls.dram.rank1.writeEnergy             0                       # Energy for write commands per rank (pJ)
system.mem_ctrls.dram.rank1.refreshEnergy 9376947840.000002                       # Energy for refresh commands per rank (pJ)
system.mem_ctrls.dram.rank1.actBackEnergy   2651055180                       # Energy for active background per rank (pJ)
system.mem_ctrls.dram.rank1.preBackEnergy  43384392000                       # Energy for precharge background per rank (pJ)
system.mem_ctrls.dram.rank1.actPowerDownEnergy            0                       # Energy for active power-down per rank (pJ)
system.mem_ctrls.dram.rank1.prePowerDownEnergy            0                       # Energy for precharge power-down per rank (pJ)
system.mem_ctrls.dram.rank1.selfRefreshEnergy            0                       # Energy for self refresh per rank (pJ)
system.mem_ctrls.dram.rank1.totalEnergy   55439947410                       # Total energy per rank (pJ)
system.mem_ctrls.dram.rank1.averagePower   466.690171                       # Core power per rank (mW)
system.mem_ctrls.dram.rank1.totalIdleTime            0                       # Total Idle time Per DRAM Rank
system.mem_ctrls.dram.rank1.pwrStateTime::IDLE 112764624500                       # Time in different power states
system.mem_ctrls.dram.rank1.pwrStateTime::REF   3966560000                       # Time in different power states
system.mem_ctrls.dram.rank1.pwrStateTime::SREF            0                       # Time in different power states
system.mem_ctrls.dram.rank1.pwrStateTime::PRE_PDN            0                       # Time in different power states
system.mem_ctrls.dram.rank1.pwrStateTime::ACT   2062719500                       # Time in different power states
system.mem_ctrls.dram.rank1.pwrStateTime::ACT_PDN            0                       # Time in different power states
system.mem_ctrls.power_state.pwrStateResidencyTicks::UNDEFINED 118793904000                       # Cumulative time (in ticks) in various power states
system.membus.trans_dist::ReadResp               1824                       # Transaction distribution
system.membus.trans_dist::ReadExReq              3666                       # Transaction distribution
system.membus.trans_dist::ReadExResp             3666                       # Transaction distribution
system.membus.trans_dist::ReadSharedReq          1824                       # Transaction distribution
system.membus.pkt_count_system.l2.mem_side_port::system.mem_ctrls.port        10980                       # Packet count per connected requestor and responder (bytes)
system.membus.pkt_count::total                  10980                       # Packet count per connected requestor and responder (bytes)
system.membus.pkt_size_system.l2.mem_side_port::system.mem_ctrls.port       351360                       # Cumulative packet size per connected requestor and responder (bytes)
system.membus.pkt_size::total                  351360                       # Cumulative packet size per connected requestor and responder (bytes)
system.membus.snoops                                0                       # Total snoops (count)
system.membus.snoopTraffic                          0                       # Total snoop traffic (bytes)
system.membus.snoop_fanout::samples              5490                       # Request fanout histogram
system.membus.snoop_fanout::mean                    0                       # Request fanout histogram
system.membus.snoop_fanout::stdev                   0                       # Request fanout histogram
system.membus.snoop_fanout::underflows              0      0.00%      0.00% # Request fanout histogram
system.membus.snoop_fanout::0                    5490    100.00%    100.00% # Request fanout histogram
system.membus.snoop_fanout::1                       0      0.00%    100.00% # Request fanout histogram
system.membus.snoop_fanout::overflows               0      0.00%    100.00% # Request fanout histogram
system.membus.snoop_fanout::min_value               0                       # Request fanout histogram
system.membus.snoop_fanout::max_value               0                       # Request fanout histogram
system.membus.snoop_fanout::total                5490                       # Request fanout histogram
system.membus.power_state.pwrStateResidencyTicks::UNDEFINED 118793904000                       # Cumulative time (in ticks) in various power states
system.membus.reqLayer0.occupancy             5490000                       # Layer occupancy (ticks)
system.membus.reqLayer0.utilization               0.0                       # Layer utilization (%)
system.membus.respLayer1.occupancy           29190250                       # Layer occupancy (ticks)
system.membus.respLayer1.utilization              0.0                       # Layer utilization (%)
system.tol2bus.trans_dist::ReadResp             28911                       # Transaction distribution
system.tol2bus.trans_dist::WritebackDirty        51959                       # Transaction distribution
system.tol2bus.trans_dist::WritebackClean         5174                       # Transaction distribution
system.tol2bus.trans_dist::CleanEvict            1783                       # Transaction distribution
system.tol2bus.trans_dist::ReadExReq            33204                       # Transaction distribution
system.tol2bus.trans_dist::ReadExResp           33204                       # Transaction distribution
system.tol2bus.trans_dist::ReadCleanReq          6325                       # Transaction distribution
system.tol2bus.trans_dist::ReadSharedReq        22586                       # Transaction distribution
system.tol2bus.pkt_count_system.cpu.icache.mem_side_port::system.l2.cpu_side_port        17824                       # Packet count per connected requestor and responder (bytes)
system.tol2bus.pkt_count_system.cpu.dcache.mem_side_port::system.l2.cpu_side_port       165322                       # Packet count per connected requestor and responder (bytes)
system.tol2bus.pkt_count::total                183146                       # Packet count per connected requestor and responder (bytes)
system.tol2bus.pkt_size_system.cpu.icache.mem_side_port::system.l2.cpu_side_port       735936                       # Cumulative packet size per connected requestor and responder (bytes)
system.tol2bus.pkt_size_system.cpu.dcache.mem_side_port::system.l2.cpu_side_port      6895936                       # Cumulative packet size per connected requestor and responder (bytes)
system.tol2bus.pkt_size::total                7631872                       # Cumulative packet size per connected requestor and responder (bytes)
system.tol2bus.snoops                               0                       # Total snoops (count)
system.tol2bus.snoopTraffic                         0                       # Total snoop traffic (bytes)
system.tol2bus.snoop_fanout::samples            62115                       # Request fanout histogram
system.tol2bus.snoop_fanout::mean            0.021364                       # Request fanout histogram
system.tol2bus.snoop_fanout::stdev           0.144594                       # Request fanout histogram
system.tol2bus.snoop_fanout::underflows             0      0.00%      0.00% # Request fanout histogram
system.tol2bus.snoop_fanout::0                  60788     97.86%     97.86% # Request fanout histogram
system.tol2bus.snoop_fanout::1                   1327      2.14%    100.00% # Request fanout histogram
system.tol2bus.snoop_fanout::2                      0      0.00%    100.00% # Request fanout histogram
system.tol2bus.snoop_fanout::overflows              0      0.00%    100.00% # Request fanout histogram
system.tol2bus.snoop_fanout::min_value              0                       # Request fanout histogram
system.tol2bus.snoop_fanout::max_value              1                       # Request fanout histogram
system.tol2bus.snoop_fanout::total              62115                       # Request fanout histogram
system.tol2bus.power_state.pwrStateResidencyTicks::UNDEFINED 118793904000                       # Cumulative time (in ticks) in various power states
system.tol2bus.reqLayer0.occupancy          235297000                       # Layer occupancy (ticks)
system.tol2bus.reqLayer0.utilization              0.2                       # Layer utilization (%)
system.tol2bus.respLayer0.occupancy          18975999                       # Layer occupancy (ticks)
system.tol2bus.respLayer0.utilization             0.0                       # Layer utilization (%)
system.tol2bus.respLayer1.occupancy         167375994                       # Layer occupancy (ticks)
system.tol2bus.respLayer1.utilization             0.1                       # Layer utilization (%)
system.voltage_domain.voltage                       1                       # Voltage in Volts

---------- End Simulation Statistics   ----------
