
---------- Begin Simulation Statistics ----------
final_tick                               157621790000                       # Number of ticks from beginning of simulation (restored from checkpoints and never reset)
host_inst_rate                                 318334                       # Simulator instruction rate (inst/s)
host_mem_usage                                8531724                       # Number of bytes of host memory used
host_op_rate                                   318959                       # Simulator op (including micro ops) rate (op/s)
host_seconds                                   314.14                       # Real time elapsed on the host
host_tick_rate                              501763458                       # Simulator tick rate (ticks/s)
sim_freq                                 1000000000000                       # Frequency of simulated ticks
sim_insts                                   100000001                       # Number of instructions simulated
sim_ops                                     100196356                       # Number of ops (including micro ops) simulated
sim_seconds                                  0.157622                       # Number of seconds simulated
sim_ticks                                157621790000                       # Number of ticks simulated
system.cpu.committedInsts                   100000001                       # Number of instructions committed
system.cpu.committedOps                     100196356                       # Number of ops (including micro ops) committed
system.cpu.cpi                               1.576218                       # CPI: cycles per instruction
system.cpu.discardedOps                        189335                       # Number of ops (including micro ops) which were discarded before commit
system.cpu.idleCycles                        25201255                       # Total number of cycles that the object has spent stopped
system.cpu.ipc                               0.634430                       # IPC: instructions per cycle
system.cpu.numCycles                        157621790                       # number of cpu cycles simulated
system.cpu.numFetchSuspends                         0                       # Number of times Execute suspended instruction fetching
system.cpu.numWorkItemsCompleted                    0                       # number of work items this cpu completed
system.cpu.numWorkItemsStarted                      0                       # number of work items this cpu started
system.cpu.op_class_0::No_OpClass                   0      0.00%      0.00% # Class of committed instruction
system.cpu.op_class_0::IntAlu                46526863     46.44%     46.44% # Class of committed instruction
system.cpu.op_class_0::IntMult                  20723      0.02%     46.46% # Class of committed instruction
system.cpu.op_class_0::IntDiv                       0      0.00%     46.46% # Class of committed instruction
system.cpu.op_class_0::FloatAdd                     0      0.00%     46.46% # Class of committed instruction
system.cpu.op_class_0::FloatCmp                     0      0.00%     46.46% # Class of committed instruction
system.cpu.op_class_0::FloatCvt                     0      0.00%     46.46% # Class of committed instruction
system.cpu.op_class_0::FloatMult                    0      0.00%     46.46% # Class of committed instruction
system.cpu.op_class_0::FloatMultAcc                 0      0.00%     46.46% # Class of committed instruction
system.cpu.op_class_0::FloatDiv                     0      0.00%     46.46% # Class of committed instruction
system.cpu.op_class_0::FloatMisc                    0      0.00%     46.46% # Class of committed instruction
system.cpu.op_class_0::FloatSqrt                    0      0.00%     46.46% # Class of committed instruction
system.cpu.op_class_0::SimdAdd                      0      0.00%     46.46% # Class of committed instruction
system.cpu.op_class_0::SimdAddAcc                   0      0.00%     46.46% # Class of committed instruction
system.cpu.op_class_0::SimdAlu                      0      0.00%     46.46% # Class of committed instruction
system.cpu.op_class_0::SimdCmp                      0      0.00%     46.46% # Class of committed instruction
system.cpu.op_class_0::SimdCvt                      0      0.00%     46.46% # Class of committed instruction
system.cpu.op_class_0::SimdMisc                     0      0.00%     46.46% # Class of committed instruction
system.cpu.op_class_0::SimdMult                     0      0.00%     46.46% # Class of committed instruction
system.cpu.op_class_0::SimdMultAcc                  0      0.00%     46.46% # Class of committed instruction
system.cpu.op_class_0::SimdShift                    0      0.00%     46.46% # Class of committed instruction
system.cpu.op_class_0::SimdShiftAcc                 0      0.00%     46.46% # Class of committed instruction
system.cpu.op_class_0::SimdDiv                      0      0.00%     46.46% # Class of committed instruction
system.cpu.op_class_0::SimdSqrt                     0      0.00%     46.46% # Class of committed instruction
system.cpu.op_class_0::SimdFloatAdd                 0      0.00%     46.46% # Class of committed instruction
system.cpu.op_class_0::SimdFloatAlu                 0      0.00%     46.46% # Class of committed instruction
system.cpu.op_class_0::SimdFloatCmp                 0      0.00%     46.46% # Class of committed instruction
system.cpu.op_class_0::SimdFloatCvt                 0      0.00%     46.46% # Class of committed instruction
system.cpu.op_class_0::SimdFloatDiv                 0      0.00%     46.46% # Class of committed instruction
system.cpu.op_class_0::SimdFloatMisc               18      0.00%     46.46% # Class of committed instruction
system.cpu.op_class_0::SimdFloatMult                0      0.00%     46.46% # Class of committed instruction
system.cpu.op_class_0::SimdFloatMultAcc             0      0.00%     46.46% # Class of committed instruction
system.cpu.op_class_0::SimdFloatSqrt                0      0.00%     46.46% # Class of committed instruction
system.cpu.op_class_0::SimdReduceAdd                0      0.00%     46.46% # Class of committed instruction
system.cpu.op_class_0::SimdReduceAlu                0      0.00%     46.46% # Class of committed instruction
system.cpu.op_class_0::SimdReduceCmp                0      0.00%     46.46% # Class of committed instruction
system.cpu.op_class_0::SimdFloatReduceAdd            0      0.00%     46.46% # Class of committed instruction
system.cpu.op_class_0::SimdFloatReduceCmp            0      0.00%     46.46% # Class of committed instruction
system.cpu.op_class_0::SimdAes                      0      0.00%     46.46% # Class of committed instruction
system.cpu.op_class_0::SimdAesMix                   0      0.00%     46.46% # Class of committed instruction
system.cpu.op_class_0::SimdSha1Hash                 0      0.00%     46.46% # Class of committed instruction
system.cpu.op_class_0::SimdSha1Hash2                0      0.00%     46.46% # Class of committed instruction
system.cpu.op_class_0::SimdSha256Hash               0      0.00%     46.46% # Class of committed instruction
system.cpu.op_class_0::SimdSha256Hash2              0      0.00%     46.46% # Class of committed instruction
system.cpu.op_class_0::SimdShaSigma2                0      0.00%     46.46% # Class of committed instruction
system.cpu.op_class_0::SimdShaSigma3                0      0.00%     46.46% # Class of committed instruction
system.cpu.op_class_0::SimdPredAlu                  0      0.00%     46.46% # Class of committed instruction
system.cpu.op_class_0::MemRead               42690537     42.61%     89.06% # Class of committed instruction
system.cpu.op_class_0::MemWrite              10958215     10.94%    100.00% # Class of committed instruction
system.cpu.op_class_0::FloatMemRead                 0      0.00%    100.00% # Class of committed instruction
system.cpu.op_class_0::FloatMemWrite                0      0.00%    100.00% # Class of committed instruction
system.cpu.op_class_0::IprAccess                    0      0.00%    100.00% # Class of committed instruction
system.cpu.op_class_0::InstPrefetch                 0      0.00%    100.00% # Class of committed instruction
system.cpu.op_class_0::total                100196356                       # Class of committed instruction
system.cpu.tickCycles                       132420535                       # Number of cycles that the object actually ticked
system.cpu.workload.numSyscalls                    85                       # Number of system calls
system.membus.snoop_filter.hit_multi_requests            0                       # Number of requests hitting in the snoop filter with multiple (>1) holders of the requested data.
system.membus.snoop_filter.hit_multi_snoops            0                       # Number of snoops hitting in the snoop filter with multiple (>1) holders of the requested data.
system.membus.snoop_filter.hit_single_requests       168478                       # Number of requests hitting in the snoop filter with a single holder of the requested data.
system.membus.snoop_filter.hit_single_snoops            0                       # Number of snoops hitting in the snoop filter with a single holder of the requested data.
system.membus.snoop_filter.tot_requests        370255                       # Total number of requests made to the snoop filter.
system.membus.snoop_filter.tot_snoops               0                       # Total number of snoops made to the snoop filter.
system.tol2bus.snoop_filter.hit_multi_requests           64                       # Number of requests hitting in the snoop filter with multiple (>1) holders of the requested data.
system.tol2bus.snoop_filter.hit_multi_snoops            0                       # Number of snoops hitting in the snoop filter with multiple (>1) holders of the requested data.
system.tol2bus.snoop_filter.hit_single_requests       524787                       # Number of requests hitting in the snoop filter with a single holder of the requested data.
system.tol2bus.snoop_filter.hit_single_snoops          569                       # Number of snoops hitting in the snoop filter with a single holder of the requested data.
system.tol2bus.snoop_filter.tot_requests      1052259                       # Total number of requests made to the snoop filter.
system.tol2bus.snoop_filter.tot_snoops            569                       # Total number of snoops made to the snoop filter.
system.clk_domain.clock                          1000                       # Clock period in ticks
system.cpu.branchPred.lookups                 4485902                       # Number of BP lookups
system.cpu.branchPred.condPredicted           3735599                       # Number of conditional branches predicted
system.cpu.branchPred.condIncorrect             80999                       # Number of conditional branches incorrect
system.cpu.branchPred.BTBLookups              2103812                       # Number of BTB lookups
system.cpu.branchPred.BTBHits                 2101801                       # Number of BTB hits
system.cpu.branchPred.BTBHitPct             99.904412                       # BTB Hit Percentage
system.cpu.branchPred.RASUsed                   65376                       # Number of times the RAS was used to get a target.
system.cpu.branchPred.RASIncorrect                 14                       # Number of incorrect RAS predictions.
system.cpu.branchPred.indirectLookups             693                       # Number of indirect predictor lookups.
system.cpu.branchPred.indirectHits                288                       # Number of indirect target hits.
system.cpu.branchPred.indirectMisses              405                       # Number of indirect misses.
system.cpu.branchPred.indirectMispredicted          171                       # Number of mispredicted indirect branches.
system.cpu.dcache.demand_hits::.cpu.data     51485518                       # number of demand (read+write) hits
system.cpu.dcache.demand_hits::total         51485518                       # number of demand (read+write) hits
system.cpu.dcache.overall_hits::.cpu.data     51486028                       # number of overall hits
system.cpu.dcache.overall_hits::total        51486028                       # number of overall hits
system.cpu.dcache.demand_misses::.cpu.data       571404                       # number of demand (read+write) misses
system.cpu.dcache.demand_misses::total         571404                       # number of demand (read+write) misses
system.cpu.dcache.overall_misses::.cpu.data       579313                       # number of overall misses
system.cpu.dcache.overall_misses::total        579313                       # number of overall misses
system.cpu.dcache.demand_miss_latency::.cpu.data  31267646000                       # number of demand (read+write) miss cycles
system.cpu.dcache.demand_miss_latency::total  31267646000                       # number of demand (read+write) miss cycles
system.cpu.dcache.overall_miss_latency::.cpu.data  31267646000                       # number of overall miss cycles
system.cpu.dcache.overall_miss_latency::total  31267646000                       # number of overall miss cycles
system.cpu.dcache.demand_accesses::.cpu.data     52056922                       # number of demand (read+write) accesses
system.cpu.dcache.demand_accesses::total     52056922                       # number of demand (read+write) accesses
system.cpu.dcache.overall_accesses::.cpu.data     52065341                       # number of overall (read+write) accesses
system.cpu.dcache.overall_accesses::total     52065341                       # number of overall (read+write) accesses
system.cpu.dcache.demand_miss_rate::.cpu.data     0.010977                       # miss rate for demand accesses
system.cpu.dcache.demand_miss_rate::total     0.010977                       # miss rate for demand accesses
system.cpu.dcache.overall_miss_rate::.cpu.data     0.011127                       # miss rate for overall accesses
system.cpu.dcache.overall_miss_rate::total     0.011127                       # miss rate for overall accesses
system.cpu.dcache.demand_avg_miss_latency::.cpu.data 54720.733492                       # average overall miss latency
system.cpu.dcache.demand_avg_miss_latency::total 54720.733492                       # average overall miss latency
system.cpu.dcache.overall_avg_miss_latency::.cpu.data 53973.665359                       # average overall miss latency
system.cpu.dcache.overall_avg_miss_latency::total 53973.665359                       # average overall miss latency
system.cpu.dcache.blocked_cycles::no_mshrs       103024                       # number of cycles access was blocked
system.cpu.dcache.blocked_cycles::no_targets            0                       # number of cycles access was blocked
system.cpu.dcache.blocked::no_mshrs              3305                       # number of cycles access was blocked
system.cpu.dcache.blocked::no_targets               0                       # number of cycles access was blocked
system.cpu.dcache.avg_blocked_cycles::no_mshrs    31.172163                       # average number of cycles each access was blocked
system.cpu.dcache.avg_blocked_cycles::no_targets          nan                       # average number of cycles each access was blocked
system.cpu.dcache.writebacks::.writebacks       450569                       # number of writebacks
system.cpu.dcache.writebacks::total            450569                       # number of writebacks
system.cpu.dcache.demand_mshr_hits::.cpu.data        52515                       # number of demand (read+write) MSHR hits
system.cpu.dcache.demand_mshr_hits::total        52515                       # number of demand (read+write) MSHR hits
system.cpu.dcache.overall_mshr_hits::.cpu.data        52515                       # number of overall MSHR hits
system.cpu.dcache.overall_mshr_hits::total        52515                       # number of overall MSHR hits
system.cpu.dcache.demand_mshr_misses::.cpu.data       518889                       # number of demand (read+write) MSHR misses
system.cpu.dcache.demand_mshr_misses::total       518889                       # number of demand (read+write) MSHR misses
system.cpu.dcache.overall_mshr_misses::.cpu.data       526794                       # number of overall MSHR misses
system.cpu.dcache.overall_mshr_misses::total       526794                       # number of overall MSHR misses
system.cpu.dcache.demand_mshr_miss_latency::.cpu.data  28553501000                       # number of demand (read+write) MSHR miss cycles
system.cpu.dcache.demand_mshr_miss_latency::total  28553501000                       # number of demand (read+write) MSHR miss cycles
system.cpu.dcache.overall_mshr_miss_latency::.cpu.data  29391783999                       # number of overall MSHR miss cycles
system.cpu.dcache.overall_mshr_miss_latency::total  29391783999                       # number of overall MSHR miss cycles
system.cpu.dcache.demand_mshr_miss_rate::.cpu.data     0.009968                       # mshr miss rate for demand accesses
system.cpu.dcache.demand_mshr_miss_rate::total     0.009968                       # mshr miss rate for demand accesses
system.cpu.dcache.overall_mshr_miss_rate::.cpu.data     0.010118                       # mshr miss rate for overall accesses
system.cpu.dcache.overall_mshr_miss_rate::total     0.010118                       # mshr miss rate for overall accesses
system.cpu.dcache.demand_avg_mshr_miss_latency::.cpu.data 55028.148602                       # average overall mshr miss latency
system.cpu.dcache.demand_avg_mshr_miss_latency::total 55028.148602                       # average overall mshr miss latency
system.cpu.dcache.overall_avg_mshr_miss_latency::.cpu.data 55793.695446                       # average overall mshr miss latency
system.cpu.dcache.overall_avg_mshr_miss_latency::total 55793.695446                       # average overall mshr miss latency
system.cpu.dcache.replacements                 524746                       # number of replacements
system.cpu.dcache.ReadReq_hits::.cpu.data     40832010                       # number of ReadReq hits
system.cpu.dcache.ReadReq_hits::total        40832010                       # number of ReadReq hits
system.cpu.dcache.ReadReq_misses::.cpu.data       275830                       # number of ReadReq misses
system.cpu.dcache.ReadReq_misses::total        275830                       # number of ReadReq misses
system.cpu.dcache.ReadReq_miss_latency::.cpu.data  11670711000                       # number of ReadReq miss cycles
system.cpu.dcache.ReadReq_miss_latency::total  11670711000                       # number of ReadReq miss cycles
system.cpu.dcache.ReadReq_accesses::.cpu.data     41107840                       # number of ReadReq accesses(hits+misses)
system.cpu.dcache.ReadReq_accesses::total     41107840                       # number of ReadReq accesses(hits+misses)
system.cpu.dcache.ReadReq_miss_rate::.cpu.data     0.006710                       # miss rate for ReadReq accesses
system.cpu.dcache.ReadReq_miss_rate::total     0.006710                       # miss rate for ReadReq accesses
system.cpu.dcache.ReadReq_avg_miss_latency::.cpu.data 42311.246057                       # average ReadReq miss latency
system.cpu.dcache.ReadReq_avg_miss_latency::total 42311.246057                       # average ReadReq miss latency
system.cpu.dcache.ReadReq_mshr_hits::.cpu.data          448                       # number of ReadReq MSHR hits
system.cpu.dcache.ReadReq_mshr_hits::total          448                       # number of ReadReq MSHR hits
system.cpu.dcache.ReadReq_mshr_misses::.cpu.data       275382                       # number of ReadReq MSHR misses
system.cpu.dcache.ReadReq_mshr_misses::total       275382                       # number of ReadReq MSHR misses
system.cpu.dcache.ReadReq_mshr_miss_latency::.cpu.data  11102890000                       # number of ReadReq MSHR miss cycles
system.cpu.dcache.ReadReq_mshr_miss_latency::total  11102890000                       # number of ReadReq MSHR miss cycles
system.cpu.dcache.ReadReq_mshr_miss_rate::.cpu.data     0.006699                       # mshr miss rate for ReadReq accesses
system.cpu.dcache.ReadReq_mshr_miss_rate::total     0.006699                       # mshr miss rate for ReadReq accesses
system.cpu.dcache.ReadReq_avg_mshr_miss_latency::.cpu.data 40318.139893                       # average ReadReq mshr miss latency
system.cpu.dcache.ReadReq_avg_mshr_miss_latency::total 40318.139893                       # average ReadReq mshr miss latency
system.cpu.dcache.WriteReq_hits::.cpu.data     10653508                       # number of WriteReq hits
system.cpu.dcache.WriteReq_hits::total       10653508                       # number of WriteReq hits
system.cpu.dcache.WriteReq_misses::.cpu.data       295574                       # number of WriteReq misses
system.cpu.dcache.WriteReq_misses::total       295574                       # number of WriteReq misses
system.cpu.dcache.WriteReq_miss_latency::.cpu.data  19596935000                       # number of WriteReq miss cycles
system.cpu.dcache.WriteReq_miss_latency::total  19596935000                       # number of WriteReq miss cycles
system.cpu.dcache.WriteReq_accesses::.cpu.data     10949082                       # number of WriteReq accesses(hits+misses)
system.cpu.dcache.WriteReq_accesses::total     10949082                       # number of WriteReq accesses(hits+misses)
system.cpu.dcache.WriteReq_miss_rate::.cpu.data     0.026995                       # miss rate for WriteReq accesses
system.cpu.dcache.WriteReq_miss_rate::total     0.026995                       # miss rate for WriteReq accesses
system.cpu.dcache.WriteReq_avg_miss_latency::.cpu.data 66301.281574                       # average WriteReq miss latency
system.cpu.dcache.WriteReq_avg_miss_latency::total 66301.281574                       # average WriteReq miss latency
system.cpu.dcache.WriteReq_mshr_hits::.cpu.data        52067                       # number of WriteReq MSHR hits
system.cpu.dcache.WriteReq_mshr_hits::total        52067                       # number of WriteReq MSHR hits
system.cpu.dcache.WriteReq_mshr_misses::.cpu.data       243507                       # number of WriteReq MSHR misses
system.cpu.dcache.WriteReq_mshr_misses::total       243507                       # number of WriteReq MSHR misses
system.cpu.dcache.WriteReq_mshr_miss_latency::.cpu.data  17450611000                       # number of WriteReq MSHR miss cycles
system.cpu.dcache.WriteReq_mshr_miss_latency::total  17450611000                       # number of WriteReq MSHR miss cycles
system.cpu.dcache.WriteReq_mshr_miss_rate::.cpu.data     0.022240                       # mshr miss rate for WriteReq accesses
system.cpu.dcache.WriteReq_mshr_miss_rate::total     0.022240                       # mshr miss rate for WriteReq accesses
system.cpu.dcache.WriteReq_avg_mshr_miss_latency::.cpu.data 71663.693446                       # average WriteReq mshr miss latency
system.cpu.dcache.WriteReq_avg_mshr_miss_latency::total 71663.693446                       # average WriteReq mshr miss latency
system.cpu.dcache.SoftPFReq_hits::.cpu.data          510                       # number of SoftPFReq hits
system.cpu.dcache.SoftPFReq_hits::total           510                       # number of SoftPFReq hits
system.cpu.dcache.SoftPFReq_misses::.cpu.data         7909                       # number of SoftPFReq misses
system.cpu.dcache.SoftPFReq_misses::total         7909                       # number of SoftPFReq misses
system.cpu.dcache.SoftPFReq_accesses::.cpu.data         8419                       # number of SoftPFReq accesses(hits+misses)
system.cpu.dcache.SoftPFReq_accesses::total         8419                       # number of SoftPFReq accesses(hits+misses)
system.cpu.dcache.SoftPFReq_miss_rate::.cpu.data     0.939423                       # miss rate for SoftPFReq accesses
system.cpu.dcache.SoftPFReq_miss_rate::total     0.939423                       # miss rate for SoftPFReq accesses
system.cpu.dcache.SoftPFReq_mshr_misses::.cpu.data         7905                       # number of SoftPFReq MSHR misses
system.cpu.dcache.SoftPFReq_mshr_misses::total         7905                       # number of SoftPFReq MSHR misses
system.cpu.dcache.SoftPFReq_mshr_miss_latency::.cpu.data    838282999                       # number of SoftPFReq MSHR miss cycles
system.cpu.dcache.SoftPFReq_mshr_miss_latency::total    838282999                       # number of SoftPFReq MSHR miss cycles
system.cpu.dcache.SoftPFReq_mshr_miss_rate::.cpu.data     0.938948                       # mshr miss rate for SoftPFReq accesses
system.cpu.dcache.SoftPFReq_mshr_miss_rate::total     0.938948                       # mshr miss rate for SoftPFReq accesses
system.cpu.dcache.SoftPFReq_avg_mshr_miss_latency::.cpu.data 106044.655155                       # average SoftPFReq mshr miss latency
system.cpu.dcache.SoftPFReq_avg_mshr_miss_latency::total 106044.655155                       # average SoftPFReq mshr miss latency
system.cpu.dcache.LoadLockedReq_hits::.cpu.data           38                       # number of LoadLockedReq hits
system.cpu.dcache.LoadLockedReq_hits::total           38                       # number of LoadLockedReq hits
system.cpu.dcache.LoadLockedReq_accesses::.cpu.data           38                       # number of LoadLockedReq accesses(hits+misses)
system.cpu.dcache.LoadLockedReq_accesses::total           38                       # number of LoadLockedReq accesses(hits+misses)
system.cpu.dcache.StoreCondReq_hits::.cpu.data           38                       # number of StoreCondReq hits
system.cpu.dcache.StoreCondReq_hits::total           38                       # number of StoreCondReq hits
system.cpu.dcache.StoreCondReq_accesses::.cpu.data           38                       # number of StoreCondReq accesses(hits+misses)
system.cpu.dcache.StoreCondReq_accesses::total           38                       # number of StoreCondReq accesses(hits+misses)
system.cpu.dcache.power_state.pwrStateResidencyTicks::UNDEFINED 157621790000                       # Cumulative time (in ticks) in various power states
system.cpu.dcache.tags.tagsinuse          2022.395948                       # Cycle average of tags in use
system.cpu.dcache.tags.total_refs            52012898                       # Total number of references to valid blocks.
system.cpu.dcache.tags.sampled_refs            526794                       # Sample count of references to valid blocks.
system.cpu.dcache.tags.avg_refs             98.734796                       # Average number of references to valid blocks.
system.cpu.dcache.tags.warmup_cycle            223000                       # Cycle when the warmup percentage was hit.
system.cpu.dcache.tags.occ_blocks::.cpu.data  2022.395948                       # Average occupied blocks per requestor
system.cpu.dcache.tags.occ_percent::.cpu.data     0.987498                       # Average percentage of cache occupancy
system.cpu.dcache.tags.occ_percent::total     0.987498                       # Average percentage of cache occupancy
system.cpu.dcache.tags.occ_task_id_blocks::1024         2048                       # Occupied blocks per task id
system.cpu.dcache.tags.age_task_id_blocks_1024::0          128                       # Occupied blocks per task id
system.cpu.dcache.tags.age_task_id_blocks_1024::1          230                       # Occupied blocks per task id
system.cpu.dcache.tags.age_task_id_blocks_1024::2         1460                       # Occupied blocks per task id
system.cpu.dcache.tags.age_task_id_blocks_1024::3          229                       # Occupied blocks per task id
system.cpu.dcache.tags.age_task_id_blocks_1024::4            1                       # Occupied blocks per task id
system.cpu.dcache.tags.occ_task_id_percent::1024            1                       # Percentage of cache occupancy per task id
system.cpu.dcache.tags.tag_accesses         104657628                       # Number of tag accesses
system.cpu.dcache.tags.data_accesses        104657628                       # Number of data accesses
system.cpu.dcache.tags.power_state.pwrStateResidencyTicks::UNDEFINED 157621790000                       # Cumulative time (in ticks) in various power states
system.cpu.dtb.instHits                             0                       # ITB inst hits
system.cpu.dtb.instMisses                           0                       # ITB inst misses
system.cpu.dtb.readHits                             0                       # DTB read hits
system.cpu.dtb.readMisses                           0                       # DTB read misses
system.cpu.dtb.writeHits                            0                       # DTB write hits
system.cpu.dtb.writeMisses                          0                       # DTB write misses
system.cpu.dtb.inserts                              0                       # Number of times an entry is inserted into the TLB
system.cpu.dtb.flushTlb                             0                       # Number of times complete TLB was flushed
system.cpu.dtb.flushTlbMva                          0                       # Number of times TLB was flushed by MVA
system.cpu.dtb.flushTlbMvaAsid                      0                       # Number of times TLB was flushed by MVA & ASID
system.cpu.dtb.flushTlbAsid                         0                       # Number of times TLB was flushed by ASID
system.cpu.dtb.flushedEntries                       0                       # Number of entries that have been flushed from TLB
system.cpu.dtb.alignFaults                          0                       # Number of TLB faults due to alignment restrictions
system.cpu.dtb.prefetchFaults                       0                       # Number of TLB faults due to prefetch
system.cpu.dtb.domainFaults                         0                       # Number of TLB faults due to domain restrictions
system.cpu.dtb.permsFaults                          0                       # Number of TLB faults due to permissions restrictions
system.cpu.dtb.readAccesses                         0                       # DTB read accesses
system.cpu.dtb.writeAccesses                        0                       # DTB write accesses
system.cpu.dtb.instAccesses                         0                       # ITB inst accesses
system.cpu.dtb.hits                                 0                       # Total TLB (inst and data) hits
system.cpu.dtb.misses                               0                       # Total TLB (inst and data) misses
system.cpu.dtb.accesses                             0                       # Total TLB (inst and data) accesses
system.cpu.dtb.stage2_mmu.stage2_tlb.instHits            0                       # ITB inst hits
system.cpu.dtb.stage2_mmu.stage2_tlb.instMisses            0                       # ITB inst misses
system.cpu.dtb.stage2_mmu.stage2_tlb.readHits            0                       # DTB read hits
system.cpu.dtb.stage2_mmu.stage2_tlb.readMisses            0                       # DTB read misses
system.cpu.dtb.stage2_mmu.stage2_tlb.writeHits            0                       # DTB write hits
system.cpu.dtb.stage2_mmu.stage2_tlb.writeMisses            0                       # DTB write misses
system.cpu.dtb.stage2_mmu.stage2_tlb.inserts            0                       # Number of times an entry is inserted into the TLB
system.cpu.dtb.stage2_mmu.stage2_tlb.flushTlb            0                       # Number of times complete TLB was flushed
system.cpu.dtb.stage2_mmu.stage2_tlb.flushTlbMva            0                       # Number of times TLB was flushed by MVA
system.cpu.dtb.stage2_mmu.stage2_tlb.flushTlbMvaAsid            0                       # Number of times TLB was flushed by MVA & ASID
system.cpu.dtb.stage2_mmu.stage2_tlb.flushTlbAsid            0                       # Number of times TLB was flushed by ASID
system.cpu.dtb.stage2_mmu.stage2_tlb.flushedEntries            0                       # Number of entries that have been flushed from TLB
system.cpu.dtb.stage2_mmu.stage2_tlb.alignFaults            0                       # Number of TLB faults due to alignment restrictions
system.cpu.dtb.stage2_mmu.stage2_tlb.prefetchFaults            0                       # Number of TLB faults due to prefetch
system.cpu.dtb.stage2_mmu.stage2_tlb.domainFaults            0                       # Number of TLB faults due to domain restrictions
system.cpu.dtb.stage2_mmu.stage2_tlb.permsFaults            0                       # Number of TLB faults due to permissions restrictions
system.cpu.dtb.stage2_mmu.stage2_tlb.readAccesses            0                       # DTB read accesses
system.cpu.dtb.stage2_mmu.stage2_tlb.writeAccesses            0                       # DTB write accesses
system.cpu.dtb.stage2_mmu.stage2_tlb.instAccesses            0                       # ITB inst accesses
system.cpu.dtb.stage2_mmu.stage2_tlb.hits            0                       # Total TLB (inst and data) hits
system.cpu.dtb.stage2_mmu.stage2_tlb.misses            0                       # Total TLB (inst and data) misses
system.cpu.dtb.stage2_mmu.stage2_tlb.accesses            0                       # Total TLB (inst and data) accesses
system.cpu.dtb.stage2_mmu.stage2_tlb.walker.walks            0                       # Table walker walks requested
system.cpu.dtb.stage2_mmu.stage2_tlb.walker.requestOrigin_Requested::Data            0                       # Table walker requests started/completed, data/inst
system.cpu.dtb.stage2_mmu.stage2_tlb.walker.requestOrigin_Requested::Inst            0                       # Table walker requests started/completed, data/inst
system.cpu.dtb.stage2_mmu.stage2_tlb.walker.requestOrigin_Requested::total            0                       # Table walker requests started/completed, data/inst
system.cpu.dtb.stage2_mmu.stage2_tlb.walker.requestOrigin_Completed::Data            0                       # Table walker requests started/completed, data/inst
system.cpu.dtb.stage2_mmu.stage2_tlb.walker.requestOrigin_Completed::Inst            0                       # Table walker requests started/completed, data/inst
system.cpu.dtb.stage2_mmu.stage2_tlb.walker.requestOrigin_Completed::total            0                       # Table walker requests started/completed, data/inst
system.cpu.dtb.stage2_mmu.stage2_tlb.walker.requestOrigin::total            0                       # Table walker requests started/completed, data/inst
system.cpu.dtb.stage2_mmu.stage2_tlb.walker.power_state.pwrStateResidencyTicks::UNDEFINED 157621790000                       # Cumulative time (in ticks) in various power states
system.cpu.dtb.walker.walks                         0                       # Table walker walks requested
system.cpu.dtb.walker.requestOrigin_Requested::Data            0                       # Table walker requests started/completed, data/inst
system.cpu.dtb.walker.requestOrigin_Requested::Inst            0                       # Table walker requests started/completed, data/inst
system.cpu.dtb.walker.requestOrigin_Requested::total            0                       # Table walker requests started/completed, data/inst
system.cpu.dtb.walker.requestOrigin_Completed::Data            0                       # Table walker requests started/completed, data/inst
system.cpu.dtb.walker.requestOrigin_Completed::Inst            0                       # Table walker requests started/completed, data/inst
system.cpu.dtb.walker.requestOrigin_Completed::total            0                       # Table walker requests started/completed, data/inst
system.cpu.dtb.walker.requestOrigin::total            0                       # Table walker requests started/completed, data/inst
system.cpu.dtb.walker.power_state.pwrStateResidencyTicks::UNDEFINED 157621790000                       # Cumulative time (in ticks) in various power states
system.cpu.fetch2.intInstructions            42685712                       # Number of integer instructions successfully decoded
system.cpu.fetch2.fpInstructions                    0                       # Number of floating point instructions successfully decoded
system.cpu.fetch2.vecInstructions                   0                       # Number of SIMD instructions successfully decoded
system.cpu.fetch2.loadInstructions           43474836                       # Number of memory load instructions successfully decoded
system.cpu.fetch2.storeInstructions          11024769                       # Number of memory store instructions successfully decoded
system.cpu.fetch2.amoInstructions                   0                       # Number of memory atomic instructions successfully decoded
system.cpu.icache.demand_hits::.cpu.inst     10277779                       # number of demand (read+write) hits
system.cpu.icache.demand_hits::total         10277779                       # number of demand (read+write) hits
system.cpu.icache.overall_hits::.cpu.inst     10277779                       # number of overall hits
system.cpu.icache.overall_hits::total        10277779                       # number of overall hits
system.cpu.icache.demand_misses::.cpu.inst          680                       # number of demand (read+write) misses
system.cpu.icache.demand_misses::total            680                       # number of demand (read+write) misses
system.cpu.icache.overall_misses::.cpu.inst          680                       # number of overall misses
system.cpu.icache.overall_misses::total           680                       # number of overall misses
system.cpu.icache.demand_miss_latency::.cpu.inst     68757000                       # number of demand (read+write) miss cycles
system.cpu.icache.demand_miss_latency::total     68757000                       # number of demand (read+write) miss cycles
system.cpu.icache.overall_miss_latency::.cpu.inst     68757000                       # number of overall miss cycles
system.cpu.icache.overall_miss_latency::total     68757000                       # number of overall miss cycles
system.cpu.icache.demand_accesses::.cpu.inst     10278459                       # number of demand (read+write) accesses
system.cpu.icache.demand_accesses::total     10278459                       # number of demand (read+write) accesses
system.cpu.icache.overall_accesses::.cpu.inst     10278459                       # number of overall (read+write) accesses
system.cpu.icache.overall_accesses::total     10278459                       # number of overall (read+write) accesses
system.cpu.icache.demand_miss_rate::.cpu.inst     0.000066                       # miss rate for demand accesses
system.cpu.icache.demand_miss_rate::total     0.000066                       # miss rate for demand accesses
system.cpu.icache.overall_miss_rate::.cpu.inst     0.000066                       # miss rate for overall accesses
system.cpu.icache.overall_miss_rate::total     0.000066                       # miss rate for overall accesses
system.cpu.icache.demand_avg_miss_latency::.cpu.inst 101113.235294                       # average overall miss latency
system.cpu.icache.demand_avg_miss_latency::total 101113.235294                       # average overall miss latency
system.cpu.icache.overall_avg_miss_latency::.cpu.inst 101113.235294                       # average overall miss latency
system.cpu.icache.overall_avg_miss_latency::total 101113.235294                       # average overall miss latency
system.cpu.icache.blocked_cycles::no_mshrs            0                       # number of cycles access was blocked
system.cpu.icache.blocked_cycles::no_targets            0                       # number of cycles access was blocked
system.cpu.icache.blocked::no_mshrs                 0                       # number of cycles access was blocked
system.cpu.icache.blocked::no_targets               0                       # number of cycles access was blocked
system.cpu.icache.avg_blocked_cycles::no_mshrs          nan                       # average number of cycles each access was blocked
system.cpu.icache.avg_blocked_cycles::no_targets          nan                       # average number of cycles each access was blocked
system.cpu.icache.writebacks::.writebacks           39                       # number of writebacks
system.cpu.icache.writebacks::total                39                       # number of writebacks
system.cpu.icache.demand_mshr_misses::.cpu.inst          680                       # number of demand (read+write) MSHR misses
system.cpu.icache.demand_mshr_misses::total          680                       # number of demand (read+write) MSHR misses
system.cpu.icache.overall_mshr_misses::.cpu.inst          680                       # number of overall MSHR misses
system.cpu.icache.overall_mshr_misses::total          680                       # number of overall MSHR misses
system.cpu.icache.demand_mshr_miss_latency::.cpu.inst     67397000                       # number of demand (read+write) MSHR miss cycles
system.cpu.icache.demand_mshr_miss_latency::total     67397000                       # number of demand (read+write) MSHR miss cycles
system.cpu.icache.overall_mshr_miss_latency::.cpu.inst     67397000                       # number of overall MSHR miss cycles
system.cpu.icache.overall_mshr_miss_latency::total     67397000                       # number of overall MSHR miss cycles
system.cpu.icache.demand_mshr_miss_rate::.cpu.inst     0.000066                       # mshr miss rate for demand accesses
system.cpu.icache.demand_mshr_miss_rate::total     0.000066                       # mshr miss rate for demand accesses
system.cpu.icache.overall_mshr_miss_rate::.cpu.inst     0.000066                       # mshr miss rate for overall accesses
system.cpu.icache.overall_mshr_miss_rate::total     0.000066                       # mshr miss rate for overall accesses
system.cpu.icache.demand_avg_mshr_miss_latency::.cpu.inst 99113.235294                       # average overall mshr miss latency
system.cpu.icache.demand_avg_mshr_miss_latency::total 99113.235294                       # average overall mshr miss latency
system.cpu.icache.overall_avg_mshr_miss_latency::.cpu.inst 99113.235294                       # average overall mshr miss latency
system.cpu.icache.overall_avg_mshr_miss_latency::total 99113.235294                       # average overall mshr miss latency
system.cpu.icache.replacements                     39                       # number of replacements
system.cpu.icache.ReadReq_hits::.cpu.inst     10277779                       # number of ReadReq hits
system.cpu.icache.ReadReq_hits::total        10277779                       # number of ReadReq hits
system.cpu.icache.ReadReq_misses::.cpu.inst          680                       # number of ReadReq misses
system.cpu.icache.ReadReq_misses::total           680                       # number of ReadReq misses
system.cpu.icache.ReadReq_miss_latency::.cpu.inst     68757000                       # number of ReadReq miss cycles
system.cpu.icache.ReadReq_miss_latency::total     68757000                       # number of ReadReq miss cycles
system.cpu.icache.ReadReq_accesses::.cpu.inst     10278459                       # number of ReadReq accesses(hits+misses)
system.cpu.icache.ReadReq_accesses::total     10278459                       # number of ReadReq accesses(hits+misses)
system.cpu.icache.ReadReq_miss_rate::.cpu.inst     0.000066                       # miss rate for ReadReq accesses
system.cpu.icache.ReadReq_miss_rate::total     0.000066                       # miss rate for ReadReq accesses
system.cpu.icache.ReadReq_avg_miss_latency::.cpu.inst 101113.235294                       # average ReadReq miss latency
system.cpu.icache.ReadReq_avg_miss_latency::total 101113.235294                       # average ReadReq miss latency
system.cpu.icache.ReadReq_mshr_misses::.cpu.inst          680                       # number of ReadReq MSHR misses
system.cpu.icache.ReadReq_mshr_misses::total          680                       # number of ReadReq MSHR misses
system.cpu.icache.ReadReq_mshr_miss_latency::.cpu.inst     67397000                       # number of ReadReq MSHR miss cycles
system.cpu.icache.ReadReq_mshr_miss_latency::total     67397000                       # number of ReadReq MSHR miss cycles
system.cpu.icache.ReadReq_mshr_miss_rate::.cpu.inst     0.000066                       # mshr miss rate for ReadReq accesses
system.cpu.icache.ReadReq_mshr_miss_rate::total     0.000066                       # mshr miss rate for ReadReq accesses
system.cpu.icache.ReadReq_avg_mshr_miss_latency::.cpu.inst 99113.235294                       # average ReadReq mshr miss latency
system.cpu.icache.ReadReq_avg_mshr_miss_latency::total 99113.235294                       # average ReadReq mshr miss latency
system.cpu.icache.power_state.pwrStateResidencyTicks::UNDEFINED 157621790000                       # Cumulative time (in ticks) in various power states
system.cpu.icache.tags.tagsinuse           519.609485                       # Cycle average of tags in use
system.cpu.icache.tags.total_refs            10278459                       # Total number of references to valid blocks.
system.cpu.icache.tags.sampled_refs               680                       # Sample count of references to valid blocks.
system.cpu.icache.tags.avg_refs          15115.380882                       # Average number of references to valid blocks.
system.cpu.icache.tags.warmup_cycle            108000                       # Cycle when the warmup percentage was hit.
system.cpu.icache.tags.occ_blocks::.cpu.inst   519.609485                       # Average occupied blocks per requestor
system.cpu.icache.tags.occ_percent::.cpu.inst     0.253716                       # Average percentage of cache occupancy
system.cpu.icache.tags.occ_percent::total     0.253716                       # Average percentage of cache occupancy
system.cpu.icache.tags.occ_task_id_blocks::1024          641                       # Occupied blocks per task id
system.cpu.icache.tags.age_task_id_blocks_1024::4          641                       # Occupied blocks per task id
system.cpu.icache.tags.occ_task_id_percent::1024     0.312988                       # Percentage of cache occupancy per task id
system.cpu.icache.tags.tag_accesses          20557598                       # Number of tag accesses
system.cpu.icache.tags.data_accesses         20557598                       # Number of data accesses
system.cpu.icache.tags.power_state.pwrStateResidencyTicks::UNDEFINED 157621790000                       # Cumulative time (in ticks) in various power states
system.cpu.itb.instHits                             0                       # ITB inst hits
system.cpu.itb.instMisses                           0                       # ITB inst misses
system.cpu.itb.readHits                             0                       # DTB read hits
system.cpu.itb.readMisses                           0                       # DTB read misses
system.cpu.itb.writeHits                            0                       # DTB write hits
system.cpu.itb.writeMisses                          0                       # DTB write misses
system.cpu.itb.inserts                              0                       # Number of times an entry is inserted into the TLB
system.cpu.itb.flushTlb                             0                       # Number of times complete TLB was flushed
system.cpu.itb.flushTlbMva                          0                       # Number of times TLB was flushed by MVA
system.cpu.itb.flushTlbMvaAsid                      0                       # Number of times TLB was flushed by MVA & ASID
system.cpu.itb.flushTlbAsid                         0                       # Number of times TLB was flushed by ASID
system.cpu.itb.flushedEntries                       0                       # Number of entries that have been flushed from TLB
system.cpu.itb.alignFaults                          0                       # Number of TLB faults due to alignment restrictions
system.cpu.itb.prefetchFaults                       0                       # Number of TLB faults due to prefetch
system.cpu.itb.domainFaults                         0                       # Number of TLB faults due to domain restrictions
system.cpu.itb.permsFaults                          0                       # Number of TLB faults due to permissions restrictions
system.cpu.itb.readAccesses                         0                       # DTB read accesses
system.cpu.itb.writeAccesses                        0                       # DTB write accesses
system.cpu.itb.instAccesses                         0                       # ITB inst accesses
system.cpu.itb.hits                                 0                       # Total TLB (inst and data) hits
system.cpu.itb.misses                               0                       # Total TLB (inst and data) misses
system.cpu.itb.accesses                             0                       # Total TLB (inst and data) accesses
system.cpu.itb.stage2_mmu.stage2_tlb.instHits            0                       # ITB inst hits
system.cpu.itb.stage2_mmu.stage2_tlb.instMisses            0                       # ITB inst misses
system.cpu.itb.stage2_mmu.stage2_tlb.readHits            0                       # DTB read hits
system.cpu.itb.stage2_mmu.stage2_tlb.readMisses            0                       # DTB read misses
system.cpu.itb.stage2_mmu.stage2_tlb.writeHits            0                       # DTB write hits
system.cpu.itb.stage2_mmu.stage2_tlb.writeMisses            0                       # DTB write misses
system.cpu.itb.stage2_mmu.stage2_tlb.inserts            0                       # Number of times an entry is inserted into the TLB
system.cpu.itb.stage2_mmu.stage2_tlb.flushTlb            0                       # Number of times complete TLB was flushed
system.cpu.itb.stage2_mmu.stage2_tlb.flushTlbMva            0                       # Number of times TLB was flushed by MVA
system.cpu.itb.stage2_mmu.stage2_tlb.flushTlbMvaAsid            0                       # Number of times TLB was flushed by MVA & ASID
system.cpu.itb.stage2_mmu.stage2_tlb.flushTlbAsid            0                       # Number of times TLB was flushed by ASID
system.cpu.itb.stage2_mmu.stage2_tlb.flushedEntries            0                       # Number of entries that have been flushed from TLB
system.cpu.itb.stage2_mmu.stage2_tlb.alignFaults            0                       # Number of TLB faults due to alignment restrictions
system.cpu.itb.stage2_mmu.stage2_tlb.prefetchFaults            0                       # Number of TLB faults due to prefetch
system.cpu.itb.stage2_mmu.stage2_tlb.domainFaults            0                       # Number of TLB faults due to domain restrictions
system.cpu.itb.stage2_mmu.stage2_tlb.permsFaults            0                       # Number of TLB faults due to permissions restrictions
system.cpu.itb.stage2_mmu.stage2_tlb.readAccesses            0                       # DTB read accesses
system.cpu.itb.stage2_mmu.stage2_tlb.writeAccesses            0                       # DTB write accesses
system.cpu.itb.stage2_mmu.stage2_tlb.instAccesses            0                       # ITB inst accesses
system.cpu.itb.stage2_mmu.stage2_tlb.hits            0                       # Total TLB (inst and data) hits
system.cpu.itb.stage2_mmu.stage2_tlb.misses            0                       # Total TLB (inst and data) misses
system.cpu.itb.stage2_mmu.stage2_tlb.accesses            0                       # Total TLB (inst and data) accesses
system.cpu.itb.stage2_mmu.stage2_tlb.walker.walks            0                       # Table walker walks requested
system.cpu.itb.stage2_mmu.stage2_tlb.walker.requestOrigin_Requested::Data            0                       # Table walker requests started/completed, data/inst
system.cpu.itb.stage2_mmu.stage2_tlb.walker.requestOrigin_Requested::Inst            0                       # Table walker requests started/completed, data/inst
system.cpu.itb.stage2_mmu.stage2_tlb.walker.requestOrigin_Requested::total            0                       # Table walker requests started/completed, data/inst
system.cpu.itb.stage2_mmu.stage2_tlb.walker.requestOrigin_Completed::Data            0                       # Table walker requests started/completed, data/inst
system.cpu.itb.stage2_mmu.stage2_tlb.walker.requestOrigin_Completed::Inst            0                       # Table walker requests started/completed, data/inst
system.cpu.itb.stage2_mmu.stage2_tlb.walker.requestOrigin_Completed::total            0                       # Table walker requests started/completed, data/inst
system.cpu.itb.stage2_mmu.stage2_tlb.walker.requestOrigin::total            0                       # Table walker requests started/completed, data/inst
system.cpu.itb.stage2_mmu.stage2_tlb.walker.power_state.pwrStateResidencyTicks::UNDEFINED 157621790000                       # Cumulative time (in ticks) in various power states
system.cpu.itb.walker.walks                         0                       # Table walker walks requested
system.cpu.itb.walker.requestOrigin_Requested::Data            0                       # Table walker requests started/completed, data/inst
system.cpu.itb.walker.requestOrigin_Requested::Inst            0                       # Table walker requests started/completed, data/inst
system.cpu.itb.walker.requestOrigin_Requested::total            0                       # Table walker requests started/completed, data/inst
system.cpu.itb.walker.requestOrigin_Completed::Data            0                       # Table walker requests started/completed, data/inst
system.cpu.itb.walker.requestOrigin_Completed::Inst            0                       # Table walker requests started/completed, data/inst
system.cpu.itb.walker.requestOrigin_Completed::total            0                       # Table walker requests started/completed, data/inst
system.cpu.itb.walker.requestOrigin::total            0                       # Table walker requests started/completed, data/inst
system.cpu.itb.walker.power_state.pwrStateResidencyTicks::UNDEFINED 157621790000                       # Cumulative time (in ticks) in various power states
system.cpu.power_state.pwrStateResidencyTicks::ON 157621790000                       # Cumulative time (in ticks) in various power states
system.cpu.thread_0.numInsts                100000001                       # Number of Instructions committed
system.cpu.thread_0.numOps                  100196356                       # Number of Ops committed
system.cpu.thread_0.numMemRefs                      0                       # Number of Memory References
system.cpu_clk_domain.clock                      1000                       # Clock period in ticks
system.cpu_voltage_domain.voltage                   1                       # Voltage in Volts
system.l2.demand_hits::.cpu.inst                   22                       # number of demand (read+write) hits
system.l2.demand_hits::.cpu.data               325663                       # number of demand (read+write) hits
system.l2.demand_hits::total                   325685                       # number of demand (read+write) hits
system.l2.overall_hits::.cpu.inst                  22                       # number of overall hits
system.l2.overall_hits::.cpu.data              325663                       # number of overall hits
system.l2.overall_hits::total                  325685                       # number of overall hits
system.l2.demand_misses::.cpu.inst                658                       # number of demand (read+write) misses
system.l2.demand_misses::.cpu.data             201131                       # number of demand (read+write) misses
system.l2.demand_misses::total                 201789                       # number of demand (read+write) misses
system.l2.overall_misses::.cpu.inst               658                       # number of overall misses
system.l2.overall_misses::.cpu.data            201131                       # number of overall misses
system.l2.overall_misses::total                201789                       # number of overall misses
system.l2.demand_miss_latency::.cpu.inst     64857000                       # number of demand (read+write) miss cycles
system.l2.demand_miss_latency::.cpu.data  20964435000                       # number of demand (read+write) miss cycles
system.l2.demand_miss_latency::total      21029292000                       # number of demand (read+write) miss cycles
system.l2.overall_miss_latency::.cpu.inst     64857000                       # number of overall miss cycles
system.l2.overall_miss_latency::.cpu.data  20964435000                       # number of overall miss cycles
system.l2.overall_miss_latency::total     21029292000                       # number of overall miss cycles
system.l2.demand_accesses::.cpu.inst              680                       # number of demand (read+write) accesses
system.l2.demand_accesses::.cpu.data           526794                       # number of demand (read+write) accesses
system.l2.demand_accesses::total               527474                       # number of demand (read+write) accesses
system.l2.overall_accesses::.cpu.inst             680                       # number of overall (read+write) accesses
system.l2.overall_accesses::.cpu.data          526794                       # number of overall (read+write) accesses
system.l2.overall_accesses::total              527474                       # number of overall (read+write) accesses
system.l2.demand_miss_rate::.cpu.inst        0.967647                       # miss rate for demand accesses
system.l2.demand_miss_rate::.cpu.data        0.381802                       # miss rate for demand accesses
system.l2.demand_miss_rate::total            0.382557                       # miss rate for demand accesses
system.l2.overall_miss_rate::.cpu.inst       0.967647                       # miss rate for overall accesses
system.l2.overall_miss_rate::.cpu.data       0.381802                       # miss rate for overall accesses
system.l2.overall_miss_rate::total           0.382557                       # miss rate for overall accesses
system.l2.demand_avg_miss_latency::.cpu.inst 98566.869301                       # average overall miss latency
system.l2.demand_avg_miss_latency::.cpu.data 104232.738862                       # average overall miss latency
system.l2.demand_avg_miss_latency::total 104214.263414                       # average overall miss latency
system.l2.overall_avg_miss_latency::.cpu.inst 98566.869301                       # average overall miss latency
system.l2.overall_avg_miss_latency::.cpu.data 104232.738862                       # average overall miss latency
system.l2.overall_avg_miss_latency::total 104214.263414                       # average overall miss latency
system.l2.blocked_cycles::no_mshrs                  0                       # number of cycles access was blocked
system.l2.blocked_cycles::no_targets                0                       # number of cycles access was blocked
system.l2.blocked::no_mshrs                         0                       # number of cycles access was blocked
system.l2.blocked::no_targets                       0                       # number of cycles access was blocked
system.l2.avg_blocked_cycles::no_mshrs            nan                       # average number of cycles each access was blocked
system.l2.avg_blocked_cycles::no_targets          nan                       # average number of cycles each access was blocked
system.l2.writebacks::.writebacks              111004                       # number of writebacks
system.l2.writebacks::total                    111004                       # number of writebacks
system.l2.demand_mshr_hits::.cpu.data               6                       # number of demand (read+write) MSHR hits
system.l2.demand_mshr_hits::total                   6                       # number of demand (read+write) MSHR hits
system.l2.overall_mshr_hits::.cpu.data              6                       # number of overall MSHR hits
system.l2.overall_mshr_hits::total                  6                       # number of overall MSHR hits
system.l2.demand_mshr_misses::.cpu.inst           658                       # number of demand (read+write) MSHR misses
system.l2.demand_mshr_misses::.cpu.data        201125                       # number of demand (read+write) MSHR misses
system.l2.demand_mshr_misses::total            201783                       # number of demand (read+write) MSHR misses
system.l2.overall_mshr_misses::.cpu.inst          658                       # number of overall MSHR misses
system.l2.overall_mshr_misses::.cpu.data       201125                       # number of overall MSHR misses
system.l2.overall_mshr_misses::total           201783                       # number of overall MSHR misses
system.l2.demand_mshr_miss_latency::.cpu.inst     51697000                       # number of demand (read+write) MSHR miss cycles
system.l2.demand_mshr_miss_latency::.cpu.data  16941258000                       # number of demand (read+write) MSHR miss cycles
system.l2.demand_mshr_miss_latency::total  16992955000                       # number of demand (read+write) MSHR miss cycles
system.l2.overall_mshr_miss_latency::.cpu.inst     51697000                       # number of overall MSHR miss cycles
system.l2.overall_mshr_miss_latency::.cpu.data  16941258000                       # number of overall MSHR miss cycles
system.l2.overall_mshr_miss_latency::total  16992955000                       # number of overall MSHR miss cycles
system.l2.demand_mshr_miss_rate::.cpu.inst     0.967647                       # mshr miss rate for demand accesses
system.l2.demand_mshr_miss_rate::.cpu.data     0.381791                       # mshr miss rate for demand accesses
system.l2.demand_mshr_miss_rate::total       0.382546                       # mshr miss rate for demand accesses
system.l2.overall_mshr_miss_rate::.cpu.inst     0.967647                       # mshr miss rate for overall accesses
system.l2.overall_mshr_miss_rate::.cpu.data     0.381791                       # mshr miss rate for overall accesses
system.l2.overall_mshr_miss_rate::total      0.382546                       # mshr miss rate for overall accesses
system.l2.demand_avg_mshr_miss_latency::.cpu.inst 78566.869301                       # average overall mshr miss latency
system.l2.demand_avg_mshr_miss_latency::.cpu.data 84232.482287                       # average overall mshr miss latency
system.l2.demand_avg_mshr_miss_latency::total 84214.007126                       # average overall mshr miss latency
system.l2.overall_avg_mshr_miss_latency::.cpu.inst 78566.869301                       # average overall mshr miss latency
system.l2.overall_avg_mshr_miss_latency::.cpu.data 84232.482287                       # average overall mshr miss latency
system.l2.overall_avg_mshr_miss_latency::total 84214.007126                       # average overall mshr miss latency
system.l2.replacements                         169040                       # number of replacements
system.l2.WritebackDirty_hits::.writebacks       450569                       # number of WritebackDirty hits
system.l2.WritebackDirty_hits::total           450569                       # number of WritebackDirty hits
system.l2.WritebackDirty_accesses::.writebacks       450569                       # number of WritebackDirty accesses(hits+misses)
system.l2.WritebackDirty_accesses::total       450569                       # number of WritebackDirty accesses(hits+misses)
system.l2.WritebackClean_hits::.writebacks           39                       # number of WritebackClean hits
system.l2.WritebackClean_hits::total               39                       # number of WritebackClean hits
system.l2.WritebackClean_accesses::.writebacks           39                       # number of WritebackClean accesses(hits+misses)
system.l2.WritebackClean_accesses::total           39                       # number of WritebackClean accesses(hits+misses)
system.l2.CleanEvict_mshr_misses::.writebacks            1                       # number of CleanEvict MSHR misses
system.l2.CleanEvict_mshr_misses::total             1                       # number of CleanEvict MSHR misses
system.l2.CleanEvict_mshr_miss_rate::.writebacks          inf                       # mshr miss rate for CleanEvict accesses
system.l2.CleanEvict_mshr_miss_rate::total          inf                       # mshr miss rate for CleanEvict accesses
system.l2.ReadExReq_hits::.cpu.data            107426                       # number of ReadExReq hits
system.l2.ReadExReq_hits::total                107426                       # number of ReadExReq hits
system.l2.ReadExReq_misses::.cpu.data          136081                       # number of ReadExReq misses
system.l2.ReadExReq_misses::total              136081                       # number of ReadExReq misses
system.l2.ReadExReq_miss_latency::.cpu.data  14458235000                       # number of ReadExReq miss cycles
system.l2.ReadExReq_miss_latency::total   14458235000                       # number of ReadExReq miss cycles
system.l2.ReadExReq_accesses::.cpu.data        243507                       # number of ReadExReq accesses(hits+misses)
system.l2.ReadExReq_accesses::total            243507                       # number of ReadExReq accesses(hits+misses)
system.l2.ReadExReq_miss_rate::.cpu.data     0.558838                       # miss rate for ReadExReq accesses
system.l2.ReadExReq_miss_rate::total         0.558838                       # miss rate for ReadExReq accesses
system.l2.ReadExReq_avg_miss_latency::.cpu.data 106247.271845                       # average ReadExReq miss latency
system.l2.ReadExReq_avg_miss_latency::total 106247.271845                       # average ReadExReq miss latency
system.l2.ReadExReq_mshr_misses::.cpu.data       136081                       # number of ReadExReq MSHR misses
system.l2.ReadExReq_mshr_misses::total         136081                       # number of ReadExReq MSHR misses
system.l2.ReadExReq_mshr_miss_latency::.cpu.data  11736615000                       # number of ReadExReq MSHR miss cycles
system.l2.ReadExReq_mshr_miss_latency::total  11736615000                       # number of ReadExReq MSHR miss cycles
system.l2.ReadExReq_mshr_miss_rate::.cpu.data     0.558838                       # mshr miss rate for ReadExReq accesses
system.l2.ReadExReq_mshr_miss_rate::total     0.558838                       # mshr miss rate for ReadExReq accesses
system.l2.ReadExReq_avg_mshr_miss_latency::.cpu.data 86247.271845                       # average ReadExReq mshr miss latency
system.l2.ReadExReq_avg_mshr_miss_latency::total 86247.271845                       # average ReadExReq mshr miss latency
system.l2.ReadCleanReq_hits::.cpu.inst             22                       # number of ReadCleanReq hits
system.l2.ReadCleanReq_hits::total                 22                       # number of ReadCleanReq hits
system.l2.ReadCleanReq_misses::.cpu.inst          658                       # number of ReadCleanReq misses
system.l2.ReadCleanReq_misses::total              658                       # number of ReadCleanReq misses
system.l2.ReadCleanReq_miss_latency::.cpu.inst     64857000                       # number of ReadCleanReq miss cycles
system.l2.ReadCleanReq_miss_latency::total     64857000                       # number of ReadCleanReq miss cycles
system.l2.ReadCleanReq_accesses::.cpu.inst          680                       # number of ReadCleanReq accesses(hits+misses)
system.l2.ReadCleanReq_accesses::total            680                       # number of ReadCleanReq accesses(hits+misses)
system.l2.ReadCleanReq_miss_rate::.cpu.inst     0.967647                       # miss rate for ReadCleanReq accesses
system.l2.ReadCleanReq_miss_rate::total      0.967647                       # miss rate for ReadCleanReq accesses
system.l2.ReadCleanReq_avg_miss_latency::.cpu.inst 98566.869301                       # average ReadCleanReq miss latency
system.l2.ReadCleanReq_avg_miss_latency::total 98566.869301                       # average ReadCleanReq miss latency
system.l2.ReadCleanReq_mshr_misses::.cpu.inst          658                       # number of ReadCleanReq MSHR misses
system.l2.ReadCleanReq_mshr_misses::total          658                       # number of ReadCleanReq MSHR misses
system.l2.ReadCleanReq_mshr_miss_latency::.cpu.inst     51697000                       # number of ReadCleanReq MSHR miss cycles
system.l2.ReadCleanReq_mshr_miss_latency::total     51697000                       # number of ReadCleanReq MSHR miss cycles
system.l2.ReadCleanReq_mshr_miss_rate::.cpu.inst     0.967647                       # mshr miss rate for ReadCleanReq accesses
system.l2.ReadCleanReq_mshr_miss_rate::total     0.967647                       # mshr miss rate for ReadCleanReq accesses
system.l2.ReadCleanReq_avg_mshr_miss_latency::.cpu.inst 78566.869301                       # average ReadCleanReq mshr miss latency
system.l2.ReadCleanReq_avg_mshr_miss_latency::total 78566.869301                       # average ReadCleanReq mshr miss latency
system.l2.ReadSharedReq_hits::.cpu.data        218237                       # number of ReadSharedReq hits
system.l2.ReadSharedReq_hits::total            218237                       # number of ReadSharedReq hits
system.l2.ReadSharedReq_misses::.cpu.data        65050                       # number of ReadSharedReq misses
system.l2.ReadSharedReq_misses::total           65050                       # number of ReadSharedReq misses
system.l2.ReadSharedReq_miss_latency::.cpu.data   6506200000                       # number of ReadSharedReq miss cycles
system.l2.ReadSharedReq_miss_latency::total   6506200000                       # number of ReadSharedReq miss cycles
system.l2.ReadSharedReq_accesses::.cpu.data       283287                       # number of ReadSharedReq accesses(hits+misses)
system.l2.ReadSharedReq_accesses::total        283287                       # number of ReadSharedReq accesses(hits+misses)
system.l2.ReadSharedReq_miss_rate::.cpu.data     0.229626                       # miss rate for ReadSharedReq accesses
system.l2.ReadSharedReq_miss_rate::total     0.229626                       # miss rate for ReadSharedReq accesses
system.l2.ReadSharedReq_avg_miss_latency::.cpu.data 100018.447348                       # average ReadSharedReq miss latency
system.l2.ReadSharedReq_avg_miss_latency::total 100018.447348                       # average ReadSharedReq miss latency
system.l2.ReadSharedReq_mshr_hits::.cpu.data            6                       # number of ReadSharedReq MSHR hits
system.l2.ReadSharedReq_mshr_hits::total            6                       # number of ReadSharedReq MSHR hits
system.l2.ReadSharedReq_mshr_misses::.cpu.data        65044                       # number of ReadSharedReq MSHR misses
system.l2.ReadSharedReq_mshr_misses::total        65044                       # number of ReadSharedReq MSHR misses
system.l2.ReadSharedReq_mshr_miss_latency::.cpu.data   5204643000                       # number of ReadSharedReq MSHR miss cycles
system.l2.ReadSharedReq_mshr_miss_latency::total   5204643000                       # number of ReadSharedReq MSHR miss cycles
system.l2.ReadSharedReq_mshr_miss_rate::.cpu.data     0.229605                       # mshr miss rate for ReadSharedReq accesses
system.l2.ReadSharedReq_mshr_miss_rate::total     0.229605                       # mshr miss rate for ReadSharedReq accesses
system.l2.ReadSharedReq_avg_mshr_miss_latency::.cpu.data 80017.265236                       # average ReadSharedReq mshr miss latency
system.l2.ReadSharedReq_avg_mshr_miss_latency::total 80017.265236                       # average ReadSharedReq mshr miss latency
system.l2.power_state.pwrStateResidencyTicks::UNDEFINED 157621790000                       # Cumulative time (in ticks) in various power states
system.l2.tags.tagsinuse                 32139.302026                       # Cycle average of tags in use
system.l2.tags.total_refs                     1052188                       # Total number of references to valid blocks.
system.l2.tags.sampled_refs                    201808                       # Sample count of references to valid blocks.
system.l2.tags.avg_refs                      5.213807                       # Average number of references to valid blocks.
system.l2.tags.warmup_cycle                     87000                       # Cycle when the warmup percentage was hit.
system.l2.tags.occ_blocks::.writebacks      11.093436                       # Average occupied blocks per requestor
system.l2.tags.occ_blocks::.cpu.inst        76.062563                       # Average occupied blocks per requestor
system.l2.tags.occ_blocks::.cpu.data     32052.146027                       # Average occupied blocks per requestor
system.l2.tags.occ_percent::.writebacks      0.000339                       # Average percentage of cache occupancy
system.l2.tags.occ_percent::.cpu.inst        0.002321                       # Average percentage of cache occupancy
system.l2.tags.occ_percent::.cpu.data        0.978154                       # Average percentage of cache occupancy
system.l2.tags.occ_percent::total            0.980814                       # Average percentage of cache occupancy
system.l2.tags.occ_task_id_blocks::1024         32768                       # Occupied blocks per task id
system.l2.tags.age_task_id_blocks_1024::1           21                       # Occupied blocks per task id
system.l2.tags.age_task_id_blocks_1024::2          617                       # Occupied blocks per task id
system.l2.tags.age_task_id_blocks_1024::3         8359                       # Occupied blocks per task id
system.l2.tags.age_task_id_blocks_1024::4        23771                       # Occupied blocks per task id
system.l2.tags.occ_task_id_percent::1024            1                       # Percentage of cache occupancy per task id
system.l2.tags.tag_accesses                   8619368                       # Number of tag accesses
system.l2.tags.data_accesses                  8619368                       # Number of data accesses
system.l2.tags.power_state.pwrStateResidencyTicks::UNDEFINED 157621790000                       # Cumulative time (in ticks) in various power states
system.mem_ctrls.avgPriority_.writebacks::samples    111004.00                       # Average QoS priority value for accepted requests
system.mem_ctrls.avgPriority_.cpu.inst::samples       658.00                       # Average QoS priority value for accepted requests
system.mem_ctrls.avgPriority_.cpu.data::samples    201085.00                       # Average QoS priority value for accepted requests
system.mem_ctrls.priorityMinLatency      0.000000018750                       # per QoS priority minimum request to response latency (s)
system.mem_ctrls.priorityMaxLatency      0.006567298500                       # per QoS priority maximum request to response latency (s)
system.mem_ctrls.numReadWriteTurnArounds         6613                       # Number of turnarounds from READ to WRITE
system.mem_ctrls.numWriteReadTurnArounds         6613                       # Number of turnarounds from WRITE to READ
system.mem_ctrls.numStayReadState              545818                       # Number of times bus staying in READ state
system.mem_ctrls.numStayWriteState             104525                       # Number of times bus staying in WRITE state
system.mem_ctrls.readReqs                      201783                       # Number of read requests accepted
system.mem_ctrls.writeReqs                     111004                       # Number of write requests accepted
system.mem_ctrls.readBursts                    201783                       # Number of controller read bursts, including those serviced by the write queue
system.mem_ctrls.writeBursts                   111004                       # Number of controller write bursts, including those merged in the write queue
system.mem_ctrls.servicedByWrQ                     40                       # Number of controller read bursts serviced by the write queue
system.mem_ctrls.mergedWrBursts                     0                       # Number of controller write bursts merged with an existing one
system.mem_ctrls.neitherReadNorWriteReqs            0                       # Number of requests that are neither read nor write
system.mem_ctrls.avgRdQLen                       1.05                       # Average read queue length when enqueuing
system.mem_ctrls.avgWrQLen                      24.57                       # Average write queue length when enqueuing
system.mem_ctrls.numRdRetry                         0                       # Number of times read queue was full causing retry
system.mem_ctrls.numWrRetry                         0                       # Number of times write queue was full causing retry
system.mem_ctrls.readPktSize::0                     0                       # Read request sizes (log2)
system.mem_ctrls.readPktSize::1                     0                       # Read request sizes (log2)
system.mem_ctrls.readPktSize::2                     0                       # Read request sizes (log2)
system.mem_ctrls.readPktSize::3                     0                       # Read request sizes (log2)
system.mem_ctrls.readPktSize::4                     0                       # Read request sizes (log2)
system.mem_ctrls.readPktSize::5                     0                       # Read request sizes (log2)
system.mem_ctrls.readPktSize::6                201783                       # Read request sizes (log2)
system.mem_ctrls.writePktSize::0                    0                       # Write request sizes (log2)
system.mem_ctrls.writePktSize::1                    0                       # Write request sizes (log2)
system.mem_ctrls.writePktSize::2                    0                       # Write request sizes (log2)
system.mem_ctrls.writePktSize::3                    0                       # Write request sizes (log2)
system.mem_ctrls.writePktSize::4                    0                       # Write request sizes (log2)
system.mem_ctrls.writePktSize::5                    0                       # Write request sizes (log2)
system.mem_ctrls.writePktSize::6               111004                       # Write request sizes (log2)
system.mem_ctrls.rdQLenPdf::0                  152614                       # What read queue length does an incoming req see
system.mem_ctrls.rdQLenPdf::1                   48611                       # What read queue length does an incoming req see
system.mem_ctrls.rdQLenPdf::2                     313                       # What read queue length does an incoming req see
system.mem_ctrls.rdQLenPdf::3                     204                       # What read queue length does an incoming req see
system.mem_ctrls.rdQLenPdf::4                       1                       # What read queue length does an incoming req see
system.mem_ctrls.rdQLenPdf::5                       0                       # What read queue length does an incoming req see
system.mem_ctrls.rdQLenPdf::6                       0                       # What read queue length does an incoming req see
system.mem_ctrls.rdQLenPdf::7                       0                       # What read queue length does an incoming req see
[...]
system.mem_ctrls.dram.bw_write::.writebacks     45071535                       # Write bandwidth from this memory (bytes/s)
system.mem_ctrls.dram.bw_write::total        45071535                       # Write bandwidth from this memory (bytes/s)
system.mem_ctrls.dram.bw_total::.writebacks     45071535                       # Total bandwidth to/from this memory (bytes/s)
system.mem_ctrls.dram.bw_total::.cpu.inst       267171                       # Total bandwidth to/from this memory (bytes/s)
system.mem_ctrls.dram.bw_total::.cpu.data     81663836                       # Total bandwidth to/from this memory (bytes/s)
system.mem_ctrls.dram.bw_total::total       127002542                       # Total bandwidth to/from this memory (bytes/s)
system.mem_ctrls.dram.readBursts               201743                       # Number of DRAM read bursts
system.mem_ctrls.dram.writeBursts              110973                       # Number of DRAM write bursts
system.mem_ctrls.dram.perBankRdBursts::0        12892                       # Per bank write bursts
system.mem_ctrls.dram.perBankRdBursts::1        12866                       # Per bank write bursts
system.mem_ctrls.dram.perBankRdBursts::2        12773                       # Per bank write bursts
system.mem_ctrls.dram.perBankRdBursts::3        12531                       # Per bank write bursts
system.mem_ctrls.dram.perBankRdBursts::4        12593                       # Per bank write bursts
system.mem_ctrls.dram.perBankRdBursts::5        12355                       # Per bank write bursts
system.mem_ctrls.dram.perBankRdBursts::6        12586                       # Per bank write bursts
system.mem_ctrls.dram.perBankRdBursts::7        12369                       # Per bank write bursts
system.mem_ctrls.dram.perBankRdBursts::8        12460                       # Per bank write bursts
system.mem_ctrls.dram.perBankRdBursts::9        12125                       # Per bank write bursts
system.mem_ctrls.dram.perBankRdBursts::10        12588                       # Per bank write bursts
system.mem_ctrls.dram.perBankRdBursts::11        12634                       # Per bank write bursts
system.mem_ctrls.dram.perBankRdBursts::12        12772                       # Per bank write bursts
system.mem_ctrls.dram.perBankRdBursts::13        12737                       # Per bank write bursts
system.mem_ctrls.dram.perBankRdBursts::14        12790                       # Per bank write bursts
system.mem_ctrls.dram.perBankRdBursts::15        12672                       # Per bank write bursts
system.mem_ctrls.dram.perBankWrBursts::0         7048                       # Per bank write bursts
system.mem_ctrls.dram.perBankWrBursts::1         7142                       # Per bank write bursts
system.mem_ctrls.dram.perBankWrBursts::2         7051                       # Per bank write bursts
system.mem_ctrls.dram.perBankWrBursts::3         6940                       # Per bank write bursts
system.mem_ctrls.dram.perBankWrBursts::4         7009                       # Per bank write bursts
system.mem_ctrls.dram.perBankWrBursts::5         6935                       # Per bank write bursts
system.mem_ctrls.dram.perBankWrBursts::6         7116                       # Per bank write bursts
system.mem_ctrls.dram.perBankWrBursts::7         6841                       # Per bank write bursts
system.mem_ctrls.dram.perBankWrBursts::8         6786                       # Per bank write bursts
system.mem_ctrls.dram.perBankWrBursts::9         6483                       # Per bank write bursts
system.mem_ctrls.dram.perBankWrBursts::10         6879                       # Per bank write bursts
system.mem_ctrls.dram.perBankWrBursts::11         6908                       # Per bank write bursts
system.mem_ctrls.dram.perBankWrBursts::12         6989                       # Per bank write bursts
system.mem_ctrls.dram.perBankWrBursts::13         6929                       # Per bank write bursts
system.mem_ctrls.dram.perBankWrBursts::14         6995                       # Per bank write bursts
system.mem_ctrls.dram.perBankWrBursts::15         6922                       # Per bank write bursts
system.mem_ctrls.dram.totQLat              2833897250                       # Total ticks spent queuing
system.mem_ctrls.dram.totBusLat            1008715000                       # Total ticks spent in databus transfers
system.mem_ctrls.dram.totMemAccLat         6616578500                       # Total ticks spent from burst creation until serviced by the DRAM
system.mem_ctrls.dram.avgQLat                14047.07                       # Average queueing delay per DRAM burst
system.mem_ctrls.dram.avgBusLat               5000.00                       # Average bus latency per DRAM burst
system.mem_ctrls.dram.avgMemAccLat           32797.07                       # Average memory access latency per DRAM burst
system.mem_ctrls.dram.readRowHits              132747                       # Number of row buffer hits during reads
system.mem_ctrls.dram.writeRowHits              69865                       # Number of row buffer hits during writes
system.mem_ctrls.dram.readRowHitRate            65.80                       # Row buffer hit rate for reads
system.mem_ctrls.dram.writeRowHitRate           62.96                       # Row buffer hit rate for writes
system.mem_ctrls.dram.bytesPerActivate::samples       110104                       # Bytes accessed per row activation
system.mem_ctrls.dram.bytesPerActivate::mean   181.771997                       # Bytes accessed per row activation
system.mem_ctrls.dram.bytesPerActivate::gmean   107.622417                       # Bytes accessed per row activation
system.mem_ctrls.dram.bytesPerActivate::stdev   245.936827                       # Bytes accessed per row activation
system.mem_ctrls.dram.bytesPerActivate::0-127        75850     68.89%     68.89% # Bytes accessed per row activation
system.mem_ctrls.dram.bytesPerActivate::128-255        12030     10.93%     79.82% # Bytes accessed per row activation
system.mem_ctrls.dram.bytesPerActivate::256-383         4826      4.38%     84.20% # Bytes accessed per row activation
system.mem_ctrls.dram.bytesPerActivate::384-511         1556      1.41%     85.61% # Bytes accessed per row activation
system.mem_ctrls.dram.bytesPerActivate::512-639         8765      7.96%     93.57% # Bytes accessed per row activation
system.mem_ctrls.dram.bytesPerActivate::640-767          743      0.67%     94.25% # Bytes accessed per row activation
system.mem_ctrls.dram.bytesPerActivate::768-895          484      0.44%     94.69% # Bytes accessed per row activation
system.mem_ctrls.dram.bytesPerActivate::896-1023          455      0.41%     95.10% # Bytes accessed per row activation
system.mem_ctrls.dram.bytesPerActivate::1024-1151         5395      4.90%    100.00% # Bytes accessed per row activation
system.mem_ctrls.dram.bytesPerActivate::total       110104                       # Bytes accessed per row activation
system.mem_ctrls.dram.bytesRead              12911552                       # Total number of bytes read from DRAM
system.mem_ctrls.dram.bytesWritten            7102272                       # Total number of bytes written to DRAM
system.mem_ctrls.dram.avgRdBW               81.914766                       # Average DRAM read bandwidth in MiBytes/s
system.mem_ctrls.dram.avgWrBW               45.058948                       # Average DRAM write bandwidth in MiBytes/s
system.mem_ctrls.dram.peakBW                 12800.00                       # Theoretical peak bandwidth in MiByte/s
system.mem_ctrls.dram.busUtil                    0.99                       # Data bus utilization in percentage
system.mem_ctrls.dram.busUtilRead                0.64                       # Data bus utilization in percentage for reads
system.mem_ctrls.dram.busUtilWrite               0.35                       # Data bus utilization in percentage for writes
system.mem_ctrls.dram.pageHitRate               64.79                       # Row buffer hit rate, read and write combined
system.mem_ctrls.dram.power_state.pwrStateResidencyTicks::UNDEFINED 157621790000                       # Cumulative time (in ticks) in various power states
system.mem_ctrls.dram.rank0.actEnergy       396419940                       # Energy for activate commands per rank (pJ)
system.mem_ctrls.dram.rank0.preEnergy       210702195                       # Energy for precharge commands per rank (pJ)
system.mem_ctrls.dram.rank0.readEnergy      720890100                       # Energy for read commands per rank (pJ)
system.mem_ctrls.dram.rank0.writeEnergy     292748040                       # Energy for write commands per rank (pJ)
system.mem_ctrls.dram.rank0.refreshEnergy 12442157520.000002                       # Energy for refresh commands per rank (pJ)
system.mem_ctrls.dram.rank0.actBackEnergy  32272021740                       # Energy for active background per rank (pJ)
system.mem_ctrls.dram.rank0.preBackEnergy  33350328000                       # Energy for precharge background per rank (pJ)
system.mem_ctrls.dram.rank0.actPowerDownEnergy            0                       # Energy for active power-down per rank (pJ)
system.mem_ctrls.dram.rank0.prePowerDownEnergy            0                       # Energy for precharge power-down per rank (pJ)
system.mem_ctrls.dram.rank0.selfRefreshEnergy            0                       # Energy for self refresh per rank (pJ)
system.mem_ctrls.dram.rank0.totalEnergy   79685267535                       # Total energy per rank (pJ)
system.mem_ctrls.dram.rank0.averagePower   505.547282                       # Core power per rank (mW)
system.mem_ctrls.dram.rank0.totalIdleTime            0                       # Total Idle time Per DRAM Rank
system.mem_ctrls.dram.rank0.pwrStateTime::IDLE  86364157250                       # Time in different power states
system.mem_ctrls.dram.rank0.pwrStateTime::REF   5263180000                       # Time in different power states
system.mem_ctrls.dram.rank0.pwrStateTime::SREF            0                       # Time in different power states
system.mem_ctrls.dram.rank0.pwrStateTime::PRE_PDN            0                       # Time in different power states
system.mem_ctrls.dram.rank0.pwrStateTime::ACT  65994452750                       # Time in different power states
system.mem_ctrls.dram.rank0.pwrStateTime::ACT_PDN            0                       # Time in different power states
system.mem_ctrls.dram.rank1.actEnergy       389722620                       # Energy for activate commands per rank (pJ)
system.mem_ctrls.dram.rank1.preEnergy       207142485                       # Energy for precharge commands per rank (pJ)
system.mem_ctrls.dram.rank1.readEnergy      719554920                       # Energy for read commands per rank (pJ)
system.mem_ctrls.dram.rank1.writeEnergy     286531020                       # Energy for write commands per rank (pJ)
system.mem_ctrls.dram.rank1.refreshEnergy 12442157520.000002                       # Energy for refresh commands per rank (pJ)
system.mem_ctrls.dram.rank1.actBackEnergy  31935504570                       # Energy for active background per rank (pJ)
system.mem_ctrls.dram.rank1.preBackEnergy  33633710880                       # Energy for precharge background per rank (pJ)
system.mem_ctrls.dram.rank1.actPowerDownEnergy            0                       # Energy for active power-down per rank (pJ)
system.mem_ctrls.dram.rank1.prePowerDownEnergy            0                       # Energy for precharge power-down per rank (pJ)
system.mem_ctrls.dram.rank1.selfRefreshEnergy            0                       # Energy for self refresh per rank (pJ)
system.mem_ctrls.dram.rank1.totalEnergy   79614324015                       # Total energy per rank (pJ)
system.mem_ctrls.dram.rank1.averagePower   505.097195                       # Core power per rank (mW)
system.mem_ctrls.dram.rank1.totalIdleTime            0                       # Total Idle time Per DRAM Rank
system.mem_ctrls.dram.rank1.pwrStateTime::IDLE  87105473500                       # Time in different power states
system.mem_ctrls.dram.rank1.pwrStateTime::REF   5263180000                       # Time in different power states
system.mem_ctrls.dram.rank1.pwrStateTime::SREF            0                       # Time in different power states
system.mem_ctrls.dram.rank1.pwrStateTime::PRE_PDN            0                       # Time in different power states
system.mem_ctrls.dram.rank1.pwrStateTime::ACT  65253136500                       # Time in different power states
system.mem_ctrls.dram.rank1.pwrStateTime::ACT_PDN            0                       # Time in different power states
system.mem_ctrls.power_state.pwrStateResidencyTicks::UNDEFINED 157621790000                       # Cumulative time (in ticks) in various power states
system.membus.trans_dist::ReadResp              65702                       # Transaction distribution
system.membus.trans_dist::WritebackDirty       111004                       # Transaction distribution
system.membus.trans_dist::CleanEvict            57468                       # Transaction distribution
system.membus.trans_dist::ReadExReq            136081                       # Transaction distribution
system.membus.trans_dist::ReadExResp           136081                       # Transaction distribution
system.membus.trans_dist::ReadSharedReq         65702                       # Transaction distribution
system.membus.pkt_count_system.l2.mem_side_port::system.mem_ctrls.port       572038                       # Packet count per connected requestor and responder (bytes)
system.membus.pkt_count::total                 572038                       # Packet count per connected requestor and responder (bytes)
system.membus.pkt_size_system.l2.mem_side_port::system.mem_ctrls.port     20018368                       # Cumulative packet size per connected requestor and responder (bytes)
system.membus.pkt_size::total                20018368                       # Cumulative packet size per connected requestor and responder (bytes)
system.membus.snoops                                0                       # Total snoops (count)
system.membus.snoopTraffic                          0                       # Total snoop traffic (bytes)
system.membus.snoop_fanout::samples            201783                       # Request fanout histogram
system.membus.snoop_fanout::mean                    0                       # Request fanout histogram
system.membus.snoop_fanout::stdev                   0                       # Request fanout histogram
system.membus.snoop_fanout::underflows              0      0.00%      0.00% # Request fanout histogram
system.membus.snoop_fanout::0                  201783    100.00%    100.00% # Request fanout histogram
system.membus.snoop_fanout::1                       0      0.00%    100.00% # Request fanout histogram
system.membus.snoop_fanout::overflows               0      0.00%    100.00% # Request fanout histogram
system.membus.snoop_fanout::min_value               0                       # Request fanout histogram
system.membus.snoop_fanout::max_value               0                       # Request fanout histogram
system.membus.snoop_fanout::total              201783                       # Request fanout histogram
system.membus.power_state.pwrStateResidencyTicks::UNDEFINED 157621790000                       # Cumulative time (in ticks) in various power states
system.membus.reqLayer0.occupancy           814271000                       # Layer occupancy (ticks)
system.membus.reqLayer0.utilization               0.5                       # Layer utilization (%)
system.membus.respLayer1.occupancy         1090423250                       # Layer occupancy (ticks)
system.membus.respLayer1.utilization              0.7                       # Layer utilization (%)
system.tol2bus.trans_dist::ReadResp            283967                       # Transaction distribution
system.tol2bus.trans_dist::WritebackDirty       561573                       # Transaction distribution
system.tol2bus.trans_dist::WritebackClean           39                       # Transaction distribution
system.tol2bus.trans_dist::CleanEvict          132213                       # Transaction distribution
system.tol2bus.trans_dist::ReadExReq           243507                       # Transaction distribution
system.tol2bus.trans_dist::ReadExResp          243507                       # Transaction distribution
system.tol2bus.trans_dist::ReadCleanReq           680                       # Transaction distribution
system.tol2bus.trans_dist::ReadSharedReq       283287                       # Transaction distribution
system.tol2bus.pkt_count_system.cpu.icache.mem_side_port::system.l2.cpu_side_port         1399                       # Packet count per connected requestor and responder (bytes)
system.tol2bus.pkt_count_system.cpu.dcache.mem_side_port::system.l2.cpu_side_port      1578334                       # Packet count per connected requestor and responder (bytes)
system.tol2bus.pkt_count::total               1579733                       # Packet count per connected requestor and responder (bytes)
system.tol2bus.pkt_size_system.cpu.icache.mem_side_port::system.l2.cpu_side_port        46016                       # Cumulative packet size per connected requestor and responder (bytes)
system.tol2bus.pkt_size_system.cpu.dcache.mem_side_port::system.l2.cpu_side_port     62551232                       # Cumulative packet size per connected requestor and responder (bytes)
system.tol2bus.pkt_size::total               62597248                       # Cumulative packet size per connected requestor and responder (bytes)
system.tol2bus.snoops                          169040                       # Total snoops (count)
system.tol2bus.snoopTraffic                   7104256                       # Total snoop traffic (bytes)
system.tol2bus.snoop_fanout::samples           696514                       # Request fanout histogram
system.tol2bus.snoop_fanout::mean            0.000912                       # Request fanout histogram
system.tol2bus.snoop_fanout::stdev           0.030180                       # Request fanout histogram
system.tol2bus.snoop_fanout::underflows             0      0.00%      0.00% # Request fanout histogram
system.tol2bus.snoop_fanout::0                 695879     99.91%     99.91% # Request fanout histogram
system.tol2bus.snoop_fanout::1                    635      0.09%    100.00% # Request fanout histogram
system.tol2bus.snoop_fanout::2                      0      0.00%    100.00% # Request fanout histogram
system.tol2bus.snoop_fanout::overflows              0      0.00%    100.00% # Request fanout histogram
system.tol2bus.snoop_fanout::min_value              0                       # Request fanout histogram
system.tol2bus.snoop_fanout::max_value              1                       # Request fanout histogram
system.tol2bus.snoop_fanout::total             696514                       # Request fanout histogram
system.tol2bus.power_state.pwrStateResidencyTicks::UNDEFINED 157621790000                       # Cumulative time (in ticks) in various power states
system.tol2bus.reqLayer0.occupancy         1953475000                       # Layer occupancy (ticks)
system.tol2bus.reqLayer0.utilization              1.2                       # Layer utilization (%)
system.tol2bus.respLayer0.occupancy           2040000                       # Layer occupancy (ticks)
system.tol2bus.respLayer0.utilization             0.0                       # Layer utilization (%)
system.tol2bus.respLayer1.occupancy        1580387994                       # Layer occupancy (ticks)
system.tol2bus.respLayer1.utilization             1.0                       # Layer utilization (%)
system.voltage_domain.voltage                       1                       # Voltage in Volts

---------- End Simulation Statistics   ----------
