
---------- Begin Simulation Statistics ----------
final_tick                               118297437000                       # Number of ticks from beginning of simulation (restored from checkpoints and never reset)
host_inst_rate                                 336505                       # Simulator instruction rate (inst/s)
host_mem_usage                                8533052                       # Number of bytes of host memory used
host_op_rate                                   340215                       # Simulator op (including micro ops) rate (op/s)
host_seconds                                   297.17                       # Real time elapsed on the host
host_tick_rate                              398076167                       # Simulator tick rate (ticks/s)
sim_freq                                 1000000000000                       # Frequency of simulated ticks
sim_insts                                   100000000                       # Number of instructions simulated
sim_ops                                     101102730                       # Number of ops (including micro ops) simulated
sim_seconds                                  0.118297                       # Number of seconds simulated
sim_ticks                                118297437000                       # Number of ticks simulated
system.cpu.committedInsts                   100000000                       # Number of instructions committed
system.cpu.committedOps                     101102730                       # Number of ops (including micro ops) committed
system.cpu.cpi                               1.182974                       # CPI: cycles per instruction
system.cpu.discardedOps                        967956                       # Number of ops (including micro ops) which were discarded before commit
system.cpu.idleCycles                         2425117                       # Total number of cycles that the object has spent stopped
system.cpu.ipc                               0.845327                       # IPC: instructions per cycle
system.cpu.numCycles                        118297437                       # number of cpu cycles simulated
system.cpu.numFetchSuspends                         0                       # Number of times Execute suspended instruction fetching
system.cpu.numWorkItemsCompleted                    0                       # number of work items this cpu completed
system.cpu.numWorkItemsStarted                      0                       # number of work items this cpu started
system.cpu.op_class_0::No_OpClass                   0      0.00%      0.00% # Class of committed instruction
system.cpu.op_class_0::IntAlu                55115624     54.51%     54.51% # Class of committed instruction
system.cpu.op_class_0::IntMult                 167845      0.17%     54.68% # Class of committed instruction
system.cpu.op_class_0::IntDiv                       0      0.00%     54.68% # Class of committed instruction
system.cpu.op_class_0::FloatAdd                     0      0.00%     54.68% # Class of committed instruction
system.cpu.op_class_0::FloatCmp                     0      0.00%     54.68% # Class of committed instruction
system.cpu.op_class_0::FloatCvt                     0      0.00%     54.68% # Class of committed instruction
system.cpu.op_class_0::FloatMult                    0      0.00%     54.68% # Class of committed instruction
system.cpu.op_class_0::FloatMultAcc                 0      0.00%     54.68% # Class of committed instruction
system.cpu.op_class_0::FloatDiv                     0      0.00%     54.68% # Class of committed instruction
system.cpu.op_class_0::FloatMisc                    0      0.00%     54.68% # Class of committed instruction
system.cpu.op_class_0::FloatSqrt                    0      0.00%     54.68% # Class of committed instruction
system.cpu.op_class_0::SimdAdd                    380      0.00%     54.68% # Class of committed instruction
system.cpu.op_class_0::SimdAddAcc                   0      0.00%     54.68% # Class of committed instruction
system.cpu.op_class_0::SimdAlu                    470      0.00%     54.68% # Class of committed instruction
system.cpu.op_class_0::SimdCmp                    382      0.00%     54.68% # Class of committed instruction
system.cpu.op_class_0::SimdCvt                      0      0.00%     54.68% # Class of committed instruction
system.cpu.op_class_0::SimdMisc                    53      0.00%     54.68% # Class of committed instruction
system.cpu.op_class_0::SimdMult                     0      0.00%     54.68% # Class of committed instruction
system.cpu.op_class_0::SimdMultAcc                  0      0.00%     54.68% # Class of committed instruction
system.cpu.op_class_0::SimdShift                    0      0.00%     54.68% # Class of committed instruction
system.cpu.op_class_0::SimdShiftAcc                 0      0.00%     54.68% # Class of committed instruction
system.cpu.op_class_0::SimdDiv                      0      0.00%     54.68% # Class of committed instruction
system.cpu.op_class_0::SimdSqrt                     0      0.00%     54.68% # Class of committed instruction
system.cpu.op_class_0::SimdFloatAdd            267609      0.26%     54.95% # Class of committed instruction
system.cpu.op_class_0::SimdFloatAlu                 0      0.00%     54.95% # Class of committed instruction
system.cpu.op_class_0::SimdFloatCmp            259630      0.26%     55.20% # Class of committed instruction
system.cpu.op_class_0::SimdFloatCvt            161456      0.16%     55.36% # Class of committed instruction
system.cpu.op_class_0::SimdFloatDiv             54308      0.05%     55.42% # Class of committed instruction
system.cpu.op_class_0::SimdFloatMisc           483618      0.48%     55.90% # Class of committed instruction
system.cpu.op_class_0::SimdFloatMult            33524      0.03%     55.93% # Class of committed instruction
system.cpu.op_class_0::SimdFloatMultAcc         11115      0.01%     55.94% # Class of committed instruction
system.cpu.op_class_0::SimdFloatSqrt                0      0.00%     55.94% # Class of committed instruction
system.cpu.op_class_0::SimdReduceAdd                0      0.00%     55.94% # Class of committed instruction
system.cpu.op_class_0::SimdReduceAlu                0      0.00%     55.94% # Class of committed instruction
system.cpu.op_class_0::SimdReduceCmp                0      0.00%     55.94% # Class of committed instruction
system.cpu.op_class_0::SimdFloatReduceAdd            0      0.00%     55.94% # Class of committed instruction
system.cpu.op_class_0::SimdFloatReduceCmp            0      0.00%     55.94% # Class of committed instruction
system.cpu.op_class_0::SimdAes                      0      0.00%     55.94% # Class of committed instruction
system.cpu.op_class_0::SimdAesMix                   0      0.00%     55.94% # Class of committed instruction
system.cpu.op_class_0::SimdSha1Hash                 0      0.00%     55.94% # Class of committed instruction
system.cpu.op_class_0::SimdSha1Hash2                0      0.00%     55.94% # Class of committed instruction
system.cpu.op_class_0::SimdSha256Hash               0      0.00%     55.94% # Class of committed instruction
system.cpu.op_class_0::SimdSha256Hash2              0      0.00%     55.94% # Class of committed instruction
system.cpu.op_class_0::SimdShaSigma2                0      0.00%     55.94% # Class of committed instruction
system.cpu.op_class_0::SimdShaSigma3                0      0.00%     55.94% # Class of committed instruction
system.cpu.op_class_0::SimdPredAlu                  0      0.00%     55.94% # Class of committed instruction
system.cpu.op_class_0::MemRead               38167611     37.75%     93.69% # Class of committed instruction
system.cpu.op_class_0::MemWrite               6379105      6.31%    100.00% # Class of committed instruction
system.cpu.op_class_0::FloatMemRead                 0      0.00%    100.00% # Class of committed instruction
system.cpu.op_class_0::FloatMemWrite                0      0.00%    100.00% # Class of committed instruction
system.cpu.op_class_0::IprAccess                    0      0.00%    100.00% # Class of committed instruction
system.cpu.op_class_0::InstPrefetch                 0      0.00%    100.00% # Class of committed instruction
system.cpu.op_class_0::total                101102730                       # Class of committed instruction
system.cpu.tickCycles                       115872320                       # Number of cycles that the object actually ticked
system.cpu.workload.numSyscalls                    32                       # Number of system calls
system.membus.snoop_filter.hit_multi_requests            0                       # Number of requests hitting in the snoop filter with multiple (>1) holders of the requested data.
system.membus.snoop_filter.hit_multi_snoops            0                       # Number of snoops hitting in the snoop filter with multiple (>1) holders of the requested data.
system.membus.snoop_filter.hit_single_requests            0                       # Number of requests hitting in the snoop filter with a single holder of the requested data.
system.membus.snoop_filter.hit_single_snoops            0                       # Number of snoops hitting in the snoop filter with a single holder of the requested data.
system.membus.snoop_filter.tot_requests          5489                       # Total number of requests made to the snoop filter.
system.membus.snoop_filter.tot_snoops               0                       # Total number of snoops made to the snoop filter.
system.tol2bus.snoop_filter.hit_multi_requests          613                       # Number of requests hitting in the snoop filter with multiple (>1) holders of the requested data.
system.tol2bus.snoop_filter.hit_multi_snoops            0                       # Number of snoops hitting in the snoop filter with multiple (>1) holders of the requested data.
system.tol2bus.snoop_filter.hit_single_requests        23606                       # Number of requests hitting in the snoop filter with a single holder of the requested data.
system.tol2bus.snoop_filter.hit_single_snoops            0                       # Number of snoops hitting in the snoop filter with a single holder of the requested data.
system.tol2bus.snoop_filter.tot_requests        50469                       # Total number of requests made to the snoop filter.
system.tol2bus.snoop_filter.tot_snoops              0                       # Total number of snoops made to the snoop filter.
system.clk_domain.clock                          1000                       # Clock period in ticks
system.cpu.branchPred.lookups                 6501111                       # Number of BP lookups
system.cpu.branchPred.condPredicted           5092827                       # Number of conditional branches predicted
system.cpu.branchPred.condIncorrect            349147                       # Number of conditional branches incorrect
system.cpu.branchPred.BTBLookups              4082913                       # Number of BTB lookups
system.cpu.branchPred.BTBHits                 4075566                       # Number of BTB hits
system.cpu.branchPred.BTBHitPct             99.820055                       # BTB Hit Percentage
system.cpu.branchPred.RASUsed                  312596                       # Number of times the RAS was used to get a target.
system.cpu.branchPred.RASIncorrect                  4                       # Number of incorrect RAS predictions.
system.cpu.branchPred.indirectLookups          675691                       # Number of indirect predictor lookups.
system.cpu.branchPred.indirectHits             102894                       # Number of indirect target hits.
system.cpu.branchPred.indirectMisses           572797                       # Number of indirect misses.
system.cpu.branchPred.indirectMispredicted        37437                       # Number of mispredicted indirect branches.
system.cpu.dcache.demand_hits::.cpu.data     43888295                       # number of demand (read+write) hits
system.cpu.dcache.demand_hits::total         43888295                       # number of demand (read+write) hits
system.cpu.dcache.overall_hits::.cpu.data     43896905                       # number of overall hits
system.cpu.dcache.overall_hits::total        43896905                       # number of overall hits
system.cpu.dcache.demand_misses::.cpu.data        29097                       # number of demand (read+write) misses
system.cpu.dcache.demand_misses::total          29097                       # number of demand (read+write) misses
system.cpu.dcache.overall_misses::.cpu.data        29203                       # number of overall misses
system.cpu.dcache.overall_misses::total         29203                       # number of overall misses
system.cpu.dcache.demand_miss_latency::.cpu.data   1230288000                       # number of demand (read+write) miss cycles
system.cpu.dcache.demand_miss_latency::total   1230288000                       # number of demand (read+write) miss cycles
system.cpu.dcache.overall_miss_latency::.cpu.data   1230288000                       # number of overall miss cycles
system.cpu.dcache.overall_miss_latency::total   1230288000                       # number of overall miss cycles
system.cpu.dcache.demand_accesses::.cpu.data     43917392                       # number of demand (read+write) accesses
system.cpu.dcache.demand_accesses::total     43917392                       # number of demand (read+write) accesses
system.cpu.dcache.overall_accesses::.cpu.data     43926108                       # number of overall (read+write) accesses
system.cpu.dcache.overall_accesses::total     43926108                       # number of overall (read+write) accesses
system.cpu.dcache.demand_miss_rate::.cpu.data     0.000663                       # miss rate for demand accesses
system.cpu.dcache.demand_miss_rate::total     0.000663                       # miss rate for demand accesses
system.cpu.dcache.overall_miss_rate::.cpu.data     0.000665                       # miss rate for overall accesses
system.cpu.dcache.overall_miss_rate::total     0.000665                       # miss rate for overall accesses
system.cpu.dcache.demand_avg_miss_latency::.cpu.data 42282.297144                       # average overall miss latency
system.cpu.dcache.demand_avg_miss_latency::total 42282.297144                       # average overall miss latency
system.cpu.dcache.overall_avg_miss_latency::.cpu.data 42128.822381                       # average overall miss latency
system.cpu.dcache.overall_avg_miss_latency::total 42128.822381                       # average overall miss latency
system.cpu.dcache.blocked_cycles::no_mshrs           62                       # number of cycles access was blocked
system.cpu.dcache.blocked_cycles::no_targets            0                       # number of cycles access was blocked
system.cpu.dcache.blocked::no_mshrs                 1                       # number of cycles access was blocked
system.cpu.dcache.blocked::no_targets               0                       # number of cycles access was blocked
system.cpu.dcache.avg_blocked_cycles::no_mshrs           62                       # average number of cycles each access was blocked
system.cpu.dcache.avg_blocked_cycles::no_targets          nan                       # average number of cycles each access was blocked
system.cpu.dcache.writebacks::.writebacks        22128                       # number of writebacks
system.cpu.dcache.writebacks::total             22128                       # number of writebacks
system.cpu.dcache.demand_mshr_hits::.cpu.data         3680                       # number of demand (read+write) MSHR hits
system.cpu.dcache.demand_mshr_hits::total         3680                       # number of demand (read+write) MSHR hits
system.cpu.dcache.overall_mshr_hits::.cpu.data         3680                       # number of overall MSHR hits
system.cpu.dcache.overall_mshr_hits::total         3680                       # number of overall MSHR hits
system.cpu.dcache.demand_mshr_misses::.cpu.data        25417                       # number of demand (read+write) MSHR misses
system.cpu.dcache.demand_mshr_misses::total        25417                       # number of demand (read+write) MSHR misses
system.cpu.dcache.overall_mshr_misses::.cpu.data        25511                       # number of overall MSHR misses
system.cpu.dcache.overall_mshr_misses::total        25511                       # number of overall MSHR misses
system.cpu.dcache.demand_mshr_miss_latency::.cpu.data    930181000                       # number of demand (read+write) MSHR miss cycles
system.cpu.dcache.demand_mshr_miss_latency::total    930181000                       # number of demand (read+write) MSHR miss cycles
system.cpu.dcache.overall_mshr_miss_latency::.cpu.data    939511000                       # number of overall MSHR miss cycles
system.cpu.dcache.overall_mshr_miss_latency::total    939511000                       # number of overall MSHR miss cycles
system.cpu.dcache.demand_mshr_miss_rate::.cpu.data     0.000579                       # mshr miss rate for demand accesses
system.cpu.dcache.demand_mshr_miss_rate::total     0.000579                       # mshr miss rate for demand accesses
system.cpu.dcache.overall_mshr_miss_rate::.cpu.data     0.000581                       # mshr miss rate for overall accesses
system.cpu.dcache.overall_mshr_miss_rate::total     0.000581                       # mshr miss rate for overall accesses
system.cpu.dcache.demand_avg_mshr_miss_latency::.cpu.data 36596.805288                       # average overall mshr miss latency
system.cpu.dcache.demand_avg_mshr_miss_latency::total 36596.805288                       # average overall mshr miss latency
system.cpu.dcache.overall_avg_mshr_miss_latency::.cpu.data 36827.682176                       # average overall mshr miss latency
system.cpu.dcache.overall_avg_mshr_miss_latency::total 36827.682176                       # average overall mshr miss latency
system.cpu.dcache.replacements                  23464                       # number of replacements
system.cpu.dcache.ReadReq_hits::.cpu.data     37588972                       # number of ReadReq hits
system.cpu.dcache.ReadReq_hits::total        37588972                       # number of ReadReq hits
system.cpu.dcache.ReadReq_misses::.cpu.data         7572                       # number of ReadReq misses
system.cpu.dcache.ReadReq_misses::total          7572                       # number of ReadReq misses
system.cpu.dcache.ReadReq_miss_latency::.cpu.data    236041000                       # number of ReadReq miss cycles
system.cpu.dcache.ReadReq_miss_latency::total    236041000                       # number of ReadReq miss cycles
system.cpu.dcache.ReadReq_accesses::.cpu.data     37596544                       # number of ReadReq accesses(hits+misses)
system.cpu.dcache.ReadReq_accesses::total     37596544                       # number of ReadReq accesses(hits+misses)
system.cpu.dcache.ReadReq_miss_rate::.cpu.data     0.000201                       # miss rate for ReadReq accesses
system.cpu.dcache.ReadReq_miss_rate::total     0.000201                       # miss rate for ReadReq accesses
system.cpu.dcache.ReadReq_avg_miss_latency::.cpu.data 31172.873745                       # average ReadReq miss latency
system.cpu.dcache.ReadReq_avg_miss_latency::total 31172.873745                       # average ReadReq miss latency
system.cpu.dcache.ReadReq_mshr_hits::.cpu.data           97                       # number of ReadReq MSHR hits
system.cpu.dcache.ReadReq_mshr_hits::total           97                       # number of ReadReq MSHR hits
system.cpu.dcache.ReadReq_mshr_misses::.cpu.data         7475                       # number of ReadReq MSHR misses
system.cpu.dcache.ReadReq_mshr_misses::total         7475                       # number of ReadReq MSHR misses
system.cpu.dcache.ReadReq_mshr_miss_latency::.cpu.data    215085000                       # number of ReadReq MSHR miss cycles
system.cpu.dcache.ReadReq_mshr_miss_latency::total    215085000                       # number of ReadReq MSHR miss cycles
system.cpu.dcache.ReadReq_mshr_miss_rate::.cpu.data     0.000199                       # mshr miss rate for ReadReq accesses
system.cpu.dcache.ReadReq_mshr_miss_rate::total     0.000199                       # mshr miss rate for ReadReq accesses
system.cpu.dcache.ReadReq_avg_mshr_miss_latency::.cpu.data 28773.913043                       # average ReadReq mshr miss latency
system.cpu.dcache.ReadReq_avg_mshr_miss_latency::total 28773.913043                       # average ReadReq mshr miss latency
system.cpu.dcache.WriteReq_hits::.cpu.data      6299323                       # number of WriteReq hits
system.cpu.dcache.WriteReq_hits::total        6299323                       # number of WriteReq hits
system.cpu.dcache.WriteReq_misses::.cpu.data        21525                       # number of WriteReq misses
system.cpu.dcache.WriteReq_misses::total        21525                       # number of WriteReq misses
system.cpu.dcache.WriteReq_miss_latency::.cpu.data    994247000                       # number of WriteReq miss cycles
system.cpu.dcache.WriteReq_miss_latency::total    994247000                       # number of WriteReq miss cycles
system.cpu.dcache.WriteReq_accesses::.cpu.data      6320848                       # number of WriteReq accesses(hits+misses)
system.cpu.dcache.WriteReq_accesses::total      6320848                       # number of WriteReq accesses(hits+misses)
system.cpu.dcache.WriteReq_miss_rate::.cpu.data     0.003405                       # miss rate for WriteReq accesses
system.cpu.dcache.WriteReq_miss_rate::total     0.003405                       # miss rate for WriteReq accesses
system.cpu.dcache.WriteReq_avg_miss_latency::.cpu.data 46190.336818                       # average WriteReq miss latency
system.cpu.dcache.WriteReq_avg_miss_latency::total 46190.336818                       # average WriteReq miss latency
system.cpu.dcache.WriteReq_mshr_hits::.cpu.data         3583                       # number of WriteReq MSHR hits
system.cpu.dcache.WriteReq_mshr_hits::total         3583                       # number of WriteReq MSHR hits
system.cpu.dcache.WriteReq_mshr_misses::.cpu.data        17942                       # number of WriteReq MSHR misses
system.cpu.dcache.WriteReq_mshr_misses::total        17942                       # number of WriteReq MSHR misses
system.cpu.dcache.WriteReq_mshr_miss_latency::.cpu.data    715096000                       # number of WriteReq MSHR miss cycles
system.cpu.dcache.WriteReq_mshr_miss_latency::total    715096000                       # number of WriteReq MSHR miss cycles
system.cpu.dcache.WriteReq_mshr_miss_rate::.cpu.data     0.002839                       # mshr miss rate for WriteReq accesses
system.cpu.dcache.WriteReq_mshr_miss_rate::total     0.002839                       # mshr miss rate for WriteReq accesses
system.cpu.dcache.WriteReq_avg_mshr_miss_latency::.cpu.data 39855.980381                       # average WriteReq mshr miss latency
system.cpu.dcache.WriteReq_avg_mshr_miss_latency::total 39855.980381                       # average WriteReq mshr miss latency
system.cpu.dcache.SoftPFReq_hits::.cpu.data         8610                       # number of SoftPFReq hits
system.cpu.dcache.SoftPFReq_hits::total          8610                       # number of SoftPFReq hits
system.cpu.dcache.SoftPFReq_misses::.cpu.data          106                       # number of SoftPFReq misses
system.cpu.dcache.SoftPFReq_misses::total          106                       # number of SoftPFReq misses
system.cpu.dcache.SoftPFReq_accesses::.cpu.data         8716                       # number of SoftPFReq accesses(hits+misses)
system.cpu.dcache.SoftPFReq_accesses::total         8716                       # number of SoftPFReq accesses(hits+misses)
system.cpu.dcache.SoftPFReq_miss_rate::.cpu.data     0.012162                       # miss rate for SoftPFReq accesses
system.cpu.dcache.SoftPFReq_miss_rate::total     0.012162                       # miss rate for SoftPFReq accesses
system.cpu.dcache.SoftPFReq_mshr_misses::.cpu.data           94                       # number of SoftPFReq MSHR misses
system.cpu.dcache.SoftPFReq_mshr_misses::total           94                       # number of SoftPFReq MSHR misses
system.cpu.dcache.SoftPFReq_mshr_miss_latency::.cpu.data      9330000                       # number of SoftPFReq MSHR miss cycles
system.cpu.dcache.SoftPFReq_mshr_miss_latency::total      9330000                       # number of SoftPFReq MSHR miss cycles
system.cpu.dcache.SoftPFReq_mshr_miss_rate::.cpu.data     0.010785                       # mshr miss rate for SoftPFReq accesses
system.cpu.dcache.SoftPFReq_mshr_miss_rate::total     0.010785                       # mshr miss rate for SoftPFReq accesses
system.cpu.dcache.SoftPFReq_avg_mshr_miss_latency::.cpu.data 99255.319149                       # average SoftPFReq mshr miss latency
system.cpu.dcache.SoftPFReq_avg_mshr_miss_latency::total 99255.319149                       # average SoftPFReq mshr miss latency
system.cpu.dcache.LoadLockedReq_hits::.cpu.data          165                       # number of LoadLockedReq hits
system.cpu.dcache.LoadLockedReq_hits::total          165                       # number of LoadLockedReq hits
system.cpu.dcache.LoadLockedReq_misses::.cpu.data            1                       # number of LoadLockedReq misses
system.cpu.dcache.LoadLockedReq_misses::total            1                       # number of LoadLockedReq misses
system.cpu.dcache.LoadLockedReq_miss_latency::.cpu.data       109000                       # number of LoadLockedReq miss cycles
system.cpu.dcache.LoadLockedReq_miss_latency::total       109000                       # number of LoadLockedReq miss cycles
system.cpu.dcache.LoadLockedReq_accesses::.cpu.data          166                       # number of LoadLockedReq accesses(hits+misses)
system.cpu.dcache.LoadLockedReq_accesses::total          166                       # number of LoadLockedReq accesses(hits+misses)
system.cpu.dcache.LoadLockedReq_miss_rate::.cpu.data     0.006024                       # miss rate for LoadLockedReq accesses
system.cpu.dcache.LoadLockedReq_miss_rate::total     0.006024                       # miss rate for LoadLockedReq accesses
system.cpu.dcache.LoadLockedReq_avg_miss_latency::.cpu.data       109000                       # average LoadLockedReq miss latency
system.cpu.dcache.LoadLockedReq_avg_miss_latency::total       109000                       # average LoadLockedReq miss latency
system.cpu.dcache.LoadLockedReq_mshr_misses::.cpu.data            1                       # number of LoadLockedReq MSHR misses
system.cpu.dcache.LoadLockedReq_mshr_misses::total            1                       # number of LoadLockedReq MSHR misses
system.cpu.dcache.LoadLockedReq_mshr_miss_latency::.cpu.data       107000                       # number of LoadLockedReq MSHR miss cycles
system.cpu.dcache.LoadLockedReq_mshr_miss_latency::total       107000                       # number of LoadLockedReq MSHR miss cycles
system.cpu.dcache.LoadLockedReq_mshr_miss_rate::.cpu.data     0.006024                       # mshr miss rate for LoadLockedReq accesses
system.cpu.dcache.LoadLockedReq_mshr_miss_rate::total     0.006024                       # mshr miss rate for LoadLockedReq accesses
system.cpu.dcache.LoadLockedReq_avg_mshr_miss_latency::.cpu.data       107000                       # average LoadLockedReq mshr miss latency
system.cpu.dcache.LoadLockedReq_avg_mshr_miss_latency::total       107000                       # average LoadLockedReq mshr miss latency
system.cpu.dcache.StoreCondReq_hits::.cpu.data          166                       # number of StoreCondReq hits
system.cpu.dcache.StoreCondReq_hits::total          166                       # number of StoreCondReq hits
system.cpu.dcache.StoreCondReq_accesses::.cpu.data          166                       # number of StoreCondReq accesses(hits+misses)
system.cpu.dcache.StoreCondReq_accesses::total          166                       # number of StoreCondReq accesses(hits+misses)
system.cpu.dcache.power_state.pwrStateResidencyTicks::UNDEFINED 118297437000                       # Cumulative time (in ticks) in various power states
system.cpu.dcache.tags.tagsinuse          2011.430657                       # Cycle average of tags in use
system.cpu.dcache.tags.total_refs            43922748                       # Total number of references to valid blocks.
system.cpu.dcache.tags.sampled_refs             25512                       # Sample count of references to valid blocks.
system.cpu.dcache.tags.avg_refs           1721.650517                       # Average number of references to valid blocks.
system.cpu.dcache.tags.warmup_cycle            223000                       # Cycle when the warmup percentage was hit.
system.cpu.dcache.tags.occ_blocks::.cpu.data  2011.430657                       # Average occupied blocks per requestor
system.cpu.dcache.tags.occ_percent::.cpu.data     0.982144                       # Average percentage of cache occupancy
system.cpu.dcache.tags.occ_percent::total     0.982144                       # Average percentage of cache occupancy
system.cpu.dcache.tags.occ_task_id_blocks::1024         2048                       # Occupied blocks per task id
system.cpu.dcache.tags.age_task_id_blocks_1024::1           20                       # Occupied blocks per task id
system.cpu.dcache.tags.age_task_id_blocks_1024::2          128                       # Occupied blocks per task id
system.cpu.dcache.tags.age_task_id_blocks_1024::3          668                       # Occupied blocks per task id
system.cpu.dcache.tags.age_task_id_blocks_1024::4         1232                       # Occupied blocks per task id
system.cpu.dcache.tags.occ_task_id_percent::1024            1                       # Percentage of cache occupancy per task id
system.cpu.dcache.tags.tag_accesses          87878392                       # Number of tag accesses
system.cpu.dcache.tags.data_accesses         87878392                       # Number of data accesses
system.cpu.dcache.tags.power_state.pwrStateResidencyTicks::UNDEFINED 118297437000                       # Cumulative time (in ticks) in various power states
system.cpu.dtb.instHits                             0                       # ITB inst hits
system.cpu.dtb.instMisses                           0                       # ITB inst misses
system.cpu.dtb.readHits                             0                       # DTB read hits
system.cpu.dtb.readMisses                           0                       # DTB read misses
system.cpu.dtb.writeHits                            0                       # DTB write hits
system.cpu.dtb.writeMisses                          0                       # DTB write misses
system.cpu.dtb.inserts                              0                       # Number of times an entry is inserted into the TLB
system.cpu.dtb.flushTlb                             0                       # Number of times complete TLB was flushed
system.cpu.dtb.flushTlbMva                          0                       # Number of times TLB was flushed by MVA
system.cpu.dtb.flushTlbMvaAsid                      0                       # Number of times TLB was flushed by MVA & ASID
system.cpu.dtb.flushTlbAsid                         0                       # Number of times TLB was flushed by ASID
system.cpu.dtb.flushedEntries                       0                       # Number of entries that have been flushed from TLB
system.cpu.dtb.alignFaults                          0                       # Number of TLB faults due to alignment restrictions
system.cpu.dtb.prefetchFaults                       0                       # Number of TLB faults due to prefetch
system.cpu.dtb.domainFaults                         0                       # Number of TLB faults due to domain restrictions
system.cpu.dtb.permsFaults                          0                       # Number of TLB faults due to permissions restrictions
system.cpu.dtb.readAccesses                         0                       # DTB read accesses
system.cpu.dtb.writeAccesses                        0                       # DTB write accesses
system.cpu.dtb.instAccesses                         0                       # ITB inst accesses
system.cpu.dtb.hits                                 0                       # Total TLB (inst and data) hits
system.cpu.dtb.misses                               0                       # Total TLB (inst and data) misses
system.cpu.dtb.accesses                             0                       # Total TLB (inst and data) accesses
system.cpu.dtb.stage2_mmu.stage2_tlb.instHits            0                       # ITB inst hits
system.cpu.dtb.stage2_mmu.stage2_tlb.instMisses            0                       # ITB inst misses
system.cpu.dtb.stage2_mmu.stage2_tlb.readHits            0                       # DTB read hits
system.cpu.dtb.stage2_mmu.stage2_tlb.readMisses            0                       # DTB read misses
system.cpu.dtb.stage2_mmu.stage2_tlb.writeHits            0                       # DTB write hits
system.cpu.dtb.stage2_mmu.stage2_tlb.writeMisses            0                       # DTB write misses
system.cpu.dtb.stage2_mmu.stage2_tlb.inserts            0                       # Number of times an entry is inserted into the TLB
system.cpu.dtb.stage2_mmu.stage2_tlb.flushTlb            0                       # Number of times complete TLB was flushed
system.cpu.dtb.stage2_mmu.stage2_tlb.flushTlbMva            0                       # Number of times TLB was flushed by MVA
system.cpu.dtb.stage2_mmu.stage2_tlb.flushTlbMvaAsid            0                       # Number of times TLB was flushed by MVA & ASID
system.cpu.dtb.stage2_mmu.stage2_tlb.flushTlbAsid            0                       # Number of times TLB was flushed by ASID
system.cpu.dtb.stage2_mmu.stage2_tlb.flushedEntries            0                       # Number of entries that have been flushed from TLB
system.cpu.dtb.stage2_mmu.stage2_tlb.alignFaults            0                       # Number of TLB faults due to alignment restrictions
system.cpu.dtb.stage2_mmu.stage2_tlb.prefetchFaults            0                       # Number of TLB faults due to prefetch
system.cpu.dtb.stage2_mmu.stage2_tlb.domainFaults            0                       # Number of TLB faults due to domain restrictions
system.cpu.dtb.stage2_mmu.stage2_tlb.permsFaults            0                       # Number of TLB faults due to permissions restrictions
system.cpu.dtb.stage2_mmu.stage2_tlb.readAccesses            0                       # DTB read accesses
system.cpu.dtb.stage2_mmu.stage2_tlb.writeAccesses            0                       # DTB write accesses
system.cpu.dtb.stage2_mmu.stage2_tlb.instAccesses            0                       # ITB inst accesses
system.cpu.dtb.stage2_mmu.stage2_tlb.hits            0                       # Total TLB (inst and data) hits
system.cpu.dtb.stage2_mmu.stage2_tlb.misses            0                       # Total TLB (inst and data) misses
system.cpu.dtb.stage2_mmu.stage2_tlb.accesses            0                       # Total TLB (inst and data) accesses
system.cpu.dtb.stage2_mmu.stage2_tlb.walker.walks            0                       # Table walker walks requested
system.cpu.dtb.stage2_mmu.stage2_tlb.walker.requestOrigin_Requested::Data            0                       # Table walker requests started/completed, data/inst
system.cpu.dtb.stage2_mmu.stage2_tlb.walker.requestOrigin_Requested::Inst            0                       # Table walker requests started/completed, data/inst
system.cpu.dtb.stage2_mmu.stage2_tlb.walker.requestOrigin_Requested::total            0                       # Table walker requests started/completed, data/inst
system.cpu.dtb.stage2_mmu.stage2_tlb.walker.requestOrigin_Completed::Data            0                       # Table walker requests started/completed, data/inst
system.cpu.dtb.stage2_mmu.stage2_tlb.walker.requestOrigin_Completed::Inst            0                       # Table walker requests started/completed, data/inst
system.cpu.dtb.stage2_mmu.stage2_tlb.walker.requestOrigin_Completed::total            0                       # Table walker requests started/completed, data/inst
system.cpu.dtb.stage2_mmu.stage2_tlb.walker.requestOrigin::total            0                       # Table walker requests started/completed, data/inst
system.cpu.dtb.stage2_mmu.stage2_tlb.walker.power_state.pwrStateResidencyTicks::UNDEFINED 118297437000                       # Cumulative time (in ticks) in various power states
system.cpu.dtb.walker.walks                         0                       # Table walker walks requested
system.cpu.dtb.walker.requestOrigin_Requested::Data            0                       # Table walker requests started/completed, data/inst
system.cpu.dtb.walker.requestOrigin_Requested::Inst            0                       # Table walker requests started/completed, data/inst
system.cpu.dtb.walker.requestOrigin_Requested::total            0                       # Table walker requests started/completed, data/inst
system.cpu.dtb.walker.requestOrigin_Completed::Data            0                       # Table walker requests started/completed, data/inst
system.cpu.dtb.walker.requestOrigin_Completed::Inst            0                       # Table walker requests started/completed, data/inst
system.cpu.dtb.walker.requestOrigin_Completed::total            0                       # Table walker requests started/completed, data/inst
system.cpu.dtb.walker.requestOrigin::total            0                       # Table walker requests started/completed, data/inst
system.cpu.dtb.walker.power_state.pwrStateResidencyTicks::UNDEFINED 118297437000                       # Cumulative time (in ticks) in various power states
system.cpu.fetch2.intInstructions            48869070                       # Number of integer instructions successfully decoded
system.cpu.fetch2.fpInstructions                    0                       # Number of floating point instructions successfully decoded
system.cpu.fetch2.vecInstructions                   0                       # Number of SIMD instructions successfully decoded
system.cpu.fetch2.loadInstructions           40552488                       # Number of memory load instructions successfully decoded
system.cpu.fetch2.storeInstructions           6265877                       # Number of memory store instructions successfully decoded
system.cpu.fetch2.amoInstructions                   0                       # Number of memory atomic instructions successfully decoded
system.cpu.icache.demand_hits::.cpu.inst     17291222                       # number of demand (read+write) hits
system.cpu.icache.demand_hits::total         17291222                       # number of demand (read+write) hits
system.cpu.icache.overall_hits::.cpu.inst     17291222                       # number of overall hits
system.cpu.icache.overall_hits::total        17291222                       # number of overall hits
system.cpu.icache.demand_misses::.cpu.inst         1367                       # number of demand (read+write) misses
system.cpu.icache.demand_misses::total           1367                       # number of demand (read+write) misses
system.cpu.icache.overall_misses::.cpu.inst         1367                       # number of overall misses
system.cpu.icache.overall_misses::total          1367                       # number of overall misses
system.cpu.icache.demand_miss_latency::.cpu.inst    134595000                       # number of demand (read+write) miss cycles
system.cpu.icache.demand_miss_latency::total    134595000                       # number of demand (read+write) miss cycles
system.cpu.icache.overall_miss_latency::.cpu.inst    134595000                       # number of overall miss cycles
system.cpu.icache.overall_miss_latency::total    134595000                       # number of overall miss cycles
system.cpu.icache.demand_accesses::.cpu.inst     17292589                       # number of demand (read+write) accesses
system.cpu.icache.demand_accesses::total     17292589                       # number of demand (read+write) accesses
system.cpu.icache.overall_accesses::.cpu.inst     17292589                       # number of overall (read+write) accesses
system.cpu.icache.overall_accesses::total     17292589                       # number of overall (read+write) accesses
system.cpu.icache.demand_miss_rate::.cpu.inst     0.000079                       # miss rate for demand accesses
system.cpu.icache.demand_miss_rate::total     0.000079                       # miss rate for demand accesses
system.cpu.icache.overall_miss_rate::.cpu.inst     0.000079                       # miss rate for overall accesses
system.cpu.icache.overall_miss_rate::total     0.000079                       # miss rate for overall accesses
system.cpu.icache.demand_avg_miss_latency::.cpu.inst 98460.131675                       # average overall miss latency
system.cpu.icache.demand_avg_miss_latency::total 98460.131675                       # average overall miss latency
system.cpu.icache.overall_avg_miss_latency::.cpu.inst 98460.131675                       # average overall miss latency
system.cpu.icache.overall_avg_miss_latency::total 98460.131675                       # average overall miss latency
system.cpu.icache.blocked_cycles::no_mshrs            0                       # number of cycles access was blocked
system.cpu.icache.blocked_cycles::no_targets            0                       # number of cycles access was blocked
system.cpu.icache.blocked::no_mshrs                 0                       # number of cycles access was blocked
system.cpu.icache.blocked::no_targets               0                       # number of cycles access was blocked
system.cpu.icache.avg_blocked_cycles::no_mshrs          nan                       # average number of cycles each access was blocked
system.cpu.icache.avg_blocked_cycles::no_targets          nan                       # average number of cycles each access was blocked
system.cpu.icache.writebacks::.writebacks          126                       # number of writebacks
system.cpu.icache.writebacks::total               126                       # number of writebacks
system.cpu.icache.demand_mshr_misses::.cpu.inst         1367                       # number of demand (read+write) MSHR misses
system.cpu.icache.demand_mshr_misses::total         1367                       # number of demand (read+write) MSHR misses
system.cpu.icache.overall_mshr_misses::.cpu.inst         1367                       # number of overall MSHR misses
system.cpu.icache.overall_mshr_misses::total         1367                       # number of overall MSHR misses
system.cpu.icache.demand_mshr_miss_latency::.cpu.inst    131861000                       # number of demand (read+write) MSHR miss cycles
system.cpu.icache.demand_mshr_miss_latency::total    131861000                       # number of demand (read+write) MSHR miss cycles
system.cpu.icache.overall_mshr_miss_latency::.cpu.inst    131861000                       # number of overall MSHR miss cycles
system.cpu.icache.overall_mshr_miss_latency::total    131861000                       # number of overall MSHR miss cycles
system.cpu.icache.demand_mshr_miss_rate::.cpu.inst     0.000079                       # mshr miss rate for demand accesses
system.cpu.icache.demand_mshr_miss_rate::total     0.000079                       # mshr miss rate for demand accesses
system.cpu.icache.overall_mshr_miss_rate::.cpu.inst     0.000079                       # mshr miss rate for overall accesses
system.cpu.icache.overall_mshr_miss_rate::total     0.000079                       # mshr miss rate for overall accesses
system.cpu.icache.demand_avg_mshr_miss_latency::.cpu.inst 96460.131675                       # average overall mshr miss latency
system.cpu.icache.demand_avg_mshr_miss_latency::total 96460.131675                       # average overall mshr miss latency
system.cpu.icache.overall_avg_mshr_miss_latency::.cpu.inst 96460.131675                       # average overall mshr miss latency
system.cpu.icache.overall_avg_mshr_miss_latency::total 96460.131675                       # average overall mshr miss latency
system.cpu.icache.replacements                    126                       # number of replacements
system.cpu.icache.ReadReq_hits::.cpu.inst     17291222                       # number of ReadReq hits
system.cpu.icache.ReadReq_hits::total        17291222                       # number of ReadReq hits
system.cpu.icache.ReadReq_misses::.cpu.inst         1367                       # number of ReadReq misses
system.cpu.icache.ReadReq_misses::total          1367                       # number of ReadReq misses
system.cpu.icache.ReadReq_miss_latency::.cpu.inst    134595000                       # number of ReadReq miss cycles
system.cpu.icache.ReadReq_miss_latency::total    134595000                       # number of ReadReq miss cycles
system.cpu.icache.ReadReq_accesses::.cpu.inst     17292589                       # number of ReadReq accesses(hits+misses)
system.cpu.icache.ReadReq_accesses::total     17292589                       # number of ReadReq accesses(hits+misses)
system.cpu.icache.ReadReq_miss_rate::.cpu.inst     0.000079                       # miss rate for ReadReq accesses
system.cpu.icache.ReadReq_miss_rate::total     0.000079                       # miss rate for ReadReq accesses
system.cpu.icache.ReadReq_avg_miss_latency::.cpu.inst 98460.131675                       # average ReadReq miss latency
system.cpu.icache.ReadReq_avg_miss_latency::total 98460.131675                       # average ReadReq miss latency
system.cpu.icache.ReadReq_mshr_misses::.cpu.inst         1367                       # number of ReadReq MSHR misses
system.cpu.icache.ReadReq_mshr_misses::total         1367                       # number of ReadReq MSHR misses
system.cpu.icache.ReadReq_mshr_miss_latency::.cpu.inst    131861000                       # number of ReadReq MSHR miss cycles
system.cpu.icache.ReadReq_mshr_miss_latency::total    131861000                       # number of ReadReq MSHR miss cycles
system.cpu.icache.ReadReq_mshr_miss_rate::.cpu.inst     0.000079                       # mshr miss rate for ReadReq accesses
system.cpu.icache.ReadReq_mshr_miss_rate::total     0.000079                       # mshr miss rate for ReadReq accesses
system.cpu.icache.ReadReq_avg_mshr_miss_latency::.cpu.inst 96460.131675                       # average ReadReq mshr miss latency
system.cpu.icache.ReadReq_avg_mshr_miss_latency::total 96460.131675                       # average ReadReq mshr miss latency
system.cpu.icache.power_state.pwrStateResidencyTicks::UNDEFINED 118297437000                       # Cumulative time (in ticks) in various power states
system.cpu.icache.tags.tagsinuse          1235.386409                       # Cycle average of tags in use
system.cpu.icache.tags.total_refs            17292589                       # Total number of references to valid blocks.
system.cpu.icache.tags.sampled_refs              1367                       # Sample count of references to valid blocks.
system.cpu.icache.tags.avg_refs          12650.028530                       # Average number of references to valid blocks.
system.cpu.icache.tags.warmup_cycle            108000                       # Cycle when the warmup percentage was hit.
system.cpu.icache.tags.occ_blocks::.cpu.inst  1235.386409                       # Average occupied blocks per requestor
system.cpu.icache.tags.occ_percent::.cpu.inst     0.603216                       # Average percentage of cache occupancy
system.cpu.icache.tags.occ_percent::total     0.603216                       # Average percentage of cache occupancy
system.cpu.icache.tags.occ_task_id_blocks::1024         1241                       # Occupied blocks per task id
system.cpu.icache.tags.age_task_id_blocks_1024::4         1241                       # Occupied blocks per task id
system.cpu.icache.tags.occ_task_id_percent::1024     0.605957                       # Percentage of cache occupancy per task id
system.cpu.icache.tags.tag_accesses          34586545                       # Number of tag accesses
system.cpu.icache.tags.data_accesses         34586545                       # Number of data accesses
system.cpu.icache.tags.power_state.pwrStateResidencyTicks::UNDEFINED 118297437000                       # Cumulative time (in ticks) in various power states
system.cpu.itb.instHits                             0                       # ITB inst hits
system.cpu.itb.instMisses                           0                       # ITB inst misses
system.cpu.itb.readHits                             0                       # DTB read hits
system.cpu.itb.readMisses                           0                       # DTB read misses
system.cpu.itb.writeHits                            0                       # DTB write hits
system.cpu.itb.writeMisses                          0                       # DTB write misses
system.cpu.itb.inserts                              0                       # Number of times an entry is inserted into the TLB
system.cpu.itb.flushTlb                             0                       # Number of times complete TLB was flushed
system.cpu.itb.flushTlbMva                          0                       # Number of times TLB was flushed by MVA
system.cpu.itb.flushTlbMvaAsid                      0                       # Number of times TLB was flushed by MVA & ASID
system.cpu.itb.flushTlbAsid                         0                       # Number of times TLB was flushed by ASID
system.cpu.itb.flushedEntries                       0                       # Number of entries that have been flushed from TLB
system.cpu.itb.alignFaults                          0                       # Number of TLB faults due to alignment restrictions
system.cpu.itb.prefetchFaults                       0                       # Number of TLB faults due to prefetch
system.cpu.itb.domainFaults                         0                       # Number of TLB faults due to domain restrictions
system.cpu.itb.permsFaults                          0                       # Number of TLB faults due to permissions restrictions
system.cpu.itb.readAccesses                         0                       # DTB read accesses
system.cpu.itb.writeAccesses                        0                       # DTB write accesses
system.cpu.itb.instAccesses                         0                       # ITB inst accesses
system.cpu.itb.hits                                 0                       # Total TLB (inst and data) hits
system.cpu.itb.misses                               0                       # Total TLB (inst and data) misses
system.cpu.itb.accesses                             0                       # Total TLB (inst and data) accesses
system.cpu.itb.stage2_mmu.stage2_tlb.instHits            0                       # ITB inst hits
system.cpu.itb.stage2_mmu.stage2_tlb.instMisses            0                       # ITB inst misses
system.cpu.itb.stage2_mmu.stage2_tlb.readHits            0                       # DTB read hits
system.cpu.itb.stage2_mmu.stage2_tlb.readMisses            0                       # DTB read misses
system.cpu.itb.stage2_mmu.stage2_tlb.writeHits            0                       # DTB write hits
system.cpu.itb.stage2_mmu.stage2_tlb.writeMisses            0                       # DTB write misses
system.cpu.itb.stage2_mmu.stage2_tlb.inserts            0                       # Number of times an entry is inserted into the TLB
system.cpu.itb.stage2_mmu.stage2_tlb.flushTlb            0                       # Number of times complete TLB was flushed
system.cpu.itb.stage2_mmu.stage2_tlb.flushTlbMva            0                       # Number of times TLB was flushed by MVA
system.cpu.itb.stage2_mmu.stage2_tlb.flushTlbMvaAsid            0                       # Number of times TLB was flushed by MVA & ASID
system.cpu.itb.stage2_mmu.stage2_tlb.flushTlbAsid            0                       # Number of times TLB was flushed by ASID
system.cpu.itb.stage2_mmu.stage2_tlb.flushedEntries            0                       # Number of entries that have been flushed from TLB
system.cpu.itb.stage2_mmu.stage2_tlb.alignFaults            0                       # Number of TLB faults due to alignment restrictions
system.cpu.itb.stage2_mmu.stage2_tlb.prefetchFaults            0                       # Number of TLB faults due to prefetch
system.cpu.itb.stage2_mmu.stage2_tlb.domainFaults            0                       # Number of TLB faults due to domain restrictions
system.cpu.itb.stage2_mmu.stage2_tlb.permsFaults            0                       # Number of TLB faults due to permissions restrictions
system.cpu.itb.stage2_mmu.stage2_tlb.readAccesses            0                       # DTB read accesses
system.cpu.itb.stage2_mmu.stage2_tlb.writeAccesses            0                       # DTB write accesses
system.cpu.itb.stage2_mmu.stage2_tlb.instAccesses            0                       # ITB inst accesses
system.cpu.itb.stage2_mmu.stage2_tlb.hits            0                       # Total TLB (inst and data) hits
system.cpu.itb.stage2_mmu.stage2_tlb.misses            0                       # Total TLB (inst and data) misses
system.cpu.itb.stage2_mmu.stage2_tlb.accesses            0                       # Total TLB (inst and data) accesses
system.cpu.itb.stage2_mmu.stage2_tlb.walker.walks            0                       # Table walker walks requested
system.cpu.itb.stage2_mmu.stage2_tlb.walker.requestOrigin_Requested::Data            0                       # Table walker requests started/completed, data/inst
system.cpu.itb.stage2_mmu.stage2_tlb.walker.requestOrigin_Requested::Inst            0                       # Table walker requests started/completed, data/inst
system.cpu.itb.stage2_mmu.stage2_tlb.walker.requestOrigin_Requested::total            0                       # Table walker requests started/completed, data/inst
system.cpu.itb.stage2_mmu.stage2_tlb.walker.requestOrigin_Completed::Data            0                       # Table walker requests started/completed, data/inst
system.cpu.itb.stage2_mmu.stage2_tlb.walker.requestOrigin_Completed::Inst            0                       # Table walker requests started/completed, data/inst
system.cpu.itb.stage2_mmu.stage2_tlb.walker.requestOrigin_Completed::total            0                       # Table walker requests started/completed, data/inst
system.cpu.itb.stage2_mmu.stage2_tlb.walker.requestOrigin::total            0                       # Table walker requests started/completed, data/inst
system.cpu.itb.stage2_mmu.stage2_tlb.walker.power_state.pwrStateResidencyTicks::UNDEFINED 118297437000                       # Cumulative time (in ticks) in various power states
system.cpu.itb.walker.walks                         0                       # Table walker walks requested
system.cpu.itb.walker.requestOrigin_Requested::Data            0                       # Table walker requests started/completed, data/inst
system.cpu.itb.walker.requestOrigin_Requested::Inst            0                       # Table walker requests started/completed, data/inst
system.cpu.itb.walker.requestOrigin_Requested::total            0                       # Table walker requests started/completed, data/inst
system.cpu.itb.walker.requestOrigin_Completed::Data            0                       # Table walker requests started/completed, data/inst
system.cpu.itb.walker.requestOrigin_Completed::Inst            0                       # Table walker requests started/completed, data/inst
system.cpu.itb.walker.requestOrigin_Completed::total            0                       # Table walker requests started/completed, data/inst
system.cpu.itb.walker.requestOrigin::total            0                       # Table walker requests started/completed, data/inst
system.cpu.itb.walker.power_state.pwrStateResidencyTicks::UNDEFINED 118297437000                       # Cumulative time (in ticks) in various power states
system.cpu.power_state.pwrStateResidencyTicks::ON 118297437000                       # Cumulative time (in ticks) in various power states
system.cpu.thread_0.numInsts                100000000                       # Number of Instructions committed
system.cpu.thread_0.numOps                  101102730                       # Number of Ops committed
system.cpu.thread_0.numMemRefs                      0                       # Number of Memory References
system.cpu_clk_domain.clock                      1000                       # Clock period in ticks
system.cpu_voltage_domain.voltage                   1                       # Voltage in Volts
system.l2.demand_hits::.cpu.inst                   63                       # number of demand (read+write) hits
system.l2.demand_hits::.cpu.data                21320                       # number of demand (read+write) hits
system.l2.demand_hits::total                    21383                       # number of demand (read+write) hits
system.l2.overall_hits::.cpu.inst                  63                       # number of overall hits
system.l2.overall_hits::.cpu.data               21320                       # number of overall hits
system.l2.overall_hits::total                   21383                       # number of overall hits
system.l2.demand_misses::.cpu.inst               1304                       # number of demand (read+write) misses
system.l2.demand_misses::.cpu.data               4192                       # number of demand (read+write) misses
system.l2.demand_misses::total                   5496                       # number of demand (read+write) misses
system.l2.overall_misses::.cpu.inst              1304                       # number of overall misses
system.l2.overall_misses::.cpu.data              4192                       # number of overall misses
system.l2.overall_misses::total                  5496                       # number of overall misses
system.l2.demand_miss_latency::.cpu.inst    126338000                       # number of demand (read+write) miss cycles
system.l2.demand_miss_latency::.cpu.data    413814000                       # number of demand (read+write) miss cycles
system.l2.demand_miss_latency::total        540152000                       # number of demand (read+write) miss cycles
system.l2.overall_miss_latency::.cpu.inst    126338000                       # number of overall miss cycles
system.l2.overall_miss_latency::.cpu.data    413814000                       # number of overall miss cycles
system.l2.overall_miss_latency::total       540152000                       # number of overall miss cycles
system.l2.demand_accesses::.cpu.inst             1367                       # number of demand (read+write) accesses
system.l2.demand_accesses::.cpu.data            25512                       # number of demand (read+write) accesses
system.l2.demand_accesses::total                26879                       # number of demand (read+write) accesses
system.l2.overall_accesses::.cpu.inst            1367                       # number of overall (read+write) accesses
system.l2.overall_accesses::.cpu.data           25512                       # number of overall (read+write) accesses
system.l2.overall_accesses::total               26879                       # number of overall (read+write) accesses
system.l2.demand_miss_rate::.cpu.inst        0.953914                       # miss rate for demand accesses
system.l2.demand_miss_rate::.cpu.data        0.164315                       # miss rate for demand accesses
system.l2.demand_miss_rate::total            0.204472                       # miss rate for demand accesses
system.l2.overall_miss_rate::.cpu.inst       0.953914                       # miss rate for overall accesses
system.l2.overall_miss_rate::.cpu.data       0.164315                       # miss rate for overall accesses
system.l2.overall_miss_rate::total           0.204472                       # miss rate for overall accesses
system.l2.demand_avg_miss_latency::.cpu.inst 96884.969325                       # average overall miss latency
system.l2.demand_avg_miss_latency::.cpu.data 98715.171756                       # average overall miss latency
system.l2.demand_avg_miss_latency::total 98280.931587                       # average overall miss latency
system.l2.overall_avg_miss_latency::.cpu.inst 96884.969325                       # average overall miss latency
system.l2.overall_avg_miss_latency::.cpu.data 98715.171756                       # average overall miss latency
system.l2.overall_avg_miss_latency::total 98280.931587                       # average overall miss latency
system.l2.blocked_cycles::no_mshrs                  0                       # number of cycles access was blocked
system.l2.blocked_cycles::no_targets                0                       # number of cycles access was blocked
system.l2.blocked::no_mshrs                         0                       # number of cycles access was blocked
system.l2.blocked::no_targets                       0                       # number of cycles access was blocked
system.l2.avg_blocked_cycles::no_mshrs            nan                       # average number of cycles each access was blocked
system.l2.avg_blocked_cycles::no_targets          nan                       # average number of cycles each access was blocked
system.l2.demand_mshr_hits::.cpu.inst               1                       # number of demand (read+write) MSHR hits
system.l2.demand_mshr_hits::.cpu.data               6                       # number of demand (read+write) MSHR hits
system.l2.demand_mshr_hits::total                   7                       # number of demand (read+write) MSHR hits
system.l2.overall_mshr_hits::.cpu.inst              1                       # number of overall MSHR hits
system.l2.overall_mshr_hits::.cpu.data              6                       # number of overall MSHR hits
system.l2.overall_mshr_hits::total                  7                       # number of overall MSHR hits
system.l2.demand_mshr_misses::.cpu.inst          1303                       # number of demand (read+write) MSHR misses
system.l2.demand_mshr_misses::.cpu.data          4186                       # number of demand (read+write) MSHR misses
system.l2.demand_mshr_misses::total              5489                       # number of demand (read+write) MSHR misses
system.l2.overall_mshr_misses::.cpu.inst         1303                       # number of overall MSHR misses
system.l2.overall_mshr_misses::.cpu.data         4186                       # number of overall MSHR misses
system.l2.overall_mshr_misses::total             5489                       # number of overall MSHR misses
system.l2.demand_mshr_miss_latency::.cpu.inst    100199000                       # number of demand (read+write) MSHR miss cycles
system.l2.demand_mshr_miss_latency::.cpu.data    329643000                       # number of demand (read+write) MSHR miss cycles
system.l2.demand_mshr_miss_latency::total    429842000                       # number of demand (read+write) MSHR miss cycles
system.l2.overall_mshr_miss_latency::.cpu.inst    100199000                       # number of overall MSHR miss cycles
system.l2.overall_mshr_miss_latency::.cpu.data    329643000                       # number of overall MSHR miss cycles
system.l2.overall_mshr_miss_latency::total    429842000                       # number of overall MSHR miss cycles
system.l2.demand_mshr_miss_rate::.cpu.inst     0.953182                       # mshr miss rate for demand accesses
system.l2.demand_mshr_miss_rate::.cpu.data     0.164080                       # mshr miss rate for demand accesses
system.l2.demand_mshr_miss_rate::total       0.204211                       # mshr miss rate for demand accesses
system.l2.overall_mshr_miss_rate::.cpu.inst     0.953182                       # mshr miss rate for overall accesses
system.l2.overall_mshr_miss_rate::.cpu.data     0.164080                       # mshr miss rate for overall accesses
system.l2.overall_mshr_miss_rate::total      0.204211                       # mshr miss rate for overall accesses
system.l2.demand_avg_mshr_miss_latency::.cpu.inst 76898.695318                       # average overall mshr miss latency
system.l2.demand_avg_mshr_miss_latency::.cpu.data 78748.924988                       # average overall mshr miss latency
system.l2.demand_avg_mshr_miss_latency::total 78309.710330                       # average overall mshr miss latency
system.l2.overall_avg_mshr_miss_latency::.cpu.inst 76898.695318                       # average overall mshr miss latency
system.l2.overall_avg_mshr_miss_latency::.cpu.data 78748.924988                       # average overall mshr miss latency
system.l2.overall_avg_mshr_miss_latency::total 78309.710330                       # average overall mshr miss latency
system.l2.replacements                              0                       # number of replacements
system.l2.WritebackDirty_hits::.writebacks        22128                       # number of WritebackDirty hits
system.l2.WritebackDirty_hits::total            22128                       # number of WritebackDirty hits
system.l2.WritebackDirty_accesses::.writebacks        22128                       # number of WritebackDirty accesses(hits+misses)
system.l2.WritebackDirty_accesses::total        22128                       # number of WritebackDirty accesses(hits+misses)
system.l2.WritebackClean_hits::.writebacks          118                       # number of WritebackClean hits
system.l2.WritebackClean_hits::total              118                       # number of WritebackClean hits
system.l2.WritebackClean_accesses::.writebacks          118                       # number of WritebackClean accesses(hits+misses)
system.l2.WritebackClean_accesses::total          118                       # number of WritebackClean accesses(hits+misses)
system.l2.ReadExReq_hits::.cpu.data             14276                       # number of ReadExReq hits
system.l2.ReadExReq_hits::total                 14276                       # number of ReadExReq hits
system.l2.ReadExReq_misses::.cpu.data            3666                       # number of ReadExReq misses
system.l2.ReadExReq_misses::total                3666                       # number of ReadExReq misses
system.l2.ReadExReq_miss_latency::.cpu.data    361095000                       # number of ReadExReq miss cycles
system.l2.ReadExReq_miss_latency::total     361095000                       # number of ReadExReq miss cycles
system.l2.ReadExReq_accesses::.cpu.data         17942                       # number of ReadExReq accesses(hits+misses)
system.l2.ReadExReq_accesses::total             17942                       # number of ReadExReq accesses(hits+misses)
system.l2.ReadExReq_miss_rate::.cpu.data     0.204325                       # miss rate for ReadExReq accesses
system.l2.ReadExReq_miss_rate::total         0.204325                       # miss rate for ReadExReq accesses
system.l2.ReadExReq_avg_miss_latency::.cpu.data 98498.363339                       # average ReadExReq miss latency
system.l2.ReadExReq_avg_miss_latency::total 98498.363339                       # average ReadExReq miss latency
system.l2.ReadExReq_mshr_misses::.cpu.data         3666                       # number of ReadExReq MSHR misses
system.l2.ReadExReq_mshr_misses::total           3666                       # number of ReadExReq MSHR misses
system.l2.ReadExReq_mshr_miss_latency::.cpu.data    287775000                       # number of ReadExReq MSHR miss cycles
system.l2.ReadExReq_mshr_miss_latency::total    287775000                       # number of ReadExReq MSHR miss cycles
system.l2.ReadExReq_mshr_miss_rate::.cpu.data     0.204325                       # mshr miss rate for ReadExReq accesses
system.l2.ReadExReq_mshr_miss_rate::total     0.204325                       # mshr miss rate for ReadExReq accesses
system.l2.ReadExReq_avg_mshr_miss_latency::.cpu.data 78498.363339                       # average ReadExReq mshr miss latency
system.l2.ReadExReq_avg_mshr_miss_latency::total 78498.363339                       # average ReadExReq mshr miss latency
system.l2.ReadCleanReq_hits::.cpu.inst             63                       # number of ReadCleanReq hits
system.l2.ReadCleanReq_hits::total                 63                       # number of ReadCleanReq hits
system.l2.ReadCleanReq_misses::.cpu.inst         1304                       # number of ReadCleanReq misses
system.l2.ReadCleanReq_misses::total             1304                       # number of ReadCleanReq misses
system.l2.ReadCleanReq_miss_latency::.cpu.inst    126338000                       # number of ReadCleanReq miss cycles
system.l2.ReadCleanReq_miss_latency::total    126338000                       # number of ReadCleanReq miss cycles
system.l2.ReadCleanReq_accesses::.cpu.inst         1367                       # number of ReadCleanReq accesses(hits+misses)
system.l2.ReadCleanReq_accesses::total           1367                       # number of ReadCleanReq accesses(hits+misses)
system.l2.ReadCleanReq_miss_rate::.cpu.inst     0.953914                       # miss rate for ReadCleanReq accesses
system.l2.ReadCleanReq_miss_rate::total      0.953914                       # miss rate for ReadCleanReq accesses
system.l2.ReadCleanReq_avg_miss_latency::.cpu.inst 96884.969325                       # average ReadCleanReq miss latency
system.l2.ReadCleanReq_avg_miss_latency::total 96884.969325                       # average ReadCleanReq miss latency
system.l2.ReadCleanReq_mshr_hits::.cpu.inst            1                       # number of ReadCleanReq MSHR hits
system.l2.ReadCleanReq_mshr_hits::total             1                       # number of ReadCleanReq MSHR hits
system.l2.ReadCleanReq_mshr_misses::.cpu.inst         1303                       # number of ReadCleanReq MSHR misses
system.l2.ReadCleanReq_mshr_misses::total         1303                       # number of ReadCleanReq MSHR misses
system.l2.ReadCleanReq_mshr_miss_latency::.cpu.inst    100199000                       # number of ReadCleanReq MSHR miss cycles
system.l2.ReadCleanReq_mshr_miss_latency::total    100199000                       # number of ReadCleanReq MSHR miss cycles
system.l2.ReadCleanReq_mshr_miss_rate::.cpu.inst     0.953182                       # mshr miss rate for ReadCleanReq accesses
system.l2.ReadCleanReq_mshr_miss_rate::total     0.953182                       # mshr miss rate for ReadCleanReq accesses
system.l2.ReadCleanReq_avg_mshr_miss_latency::.cpu.inst 76898.695318                       # average ReadCleanReq mshr miss latency
system.l2.ReadCleanReq_avg_mshr_miss_latency::total 76898.695318                       # average ReadCleanReq mshr miss latency
system.l2.ReadSharedReq_hits::.cpu.data          7044                       # number of ReadSharedReq hits
system.l2.ReadSharedReq_hits::total              7044                       # number of ReadSharedReq hits
system.l2.ReadSharedReq_misses::.cpu.data          526                       # number of ReadSharedReq misses
system.l2.ReadSharedReq_misses::total             526                       # number of ReadSharedReq misses
system.l2.ReadSharedReq_miss_latency::.cpu.data     52719000                       # number of ReadSharedReq miss cycles
system.l2.ReadSharedReq_miss_latency::total     52719000                       # number of ReadSharedReq miss cycles
system.l2.ReadSharedReq_accesses::.cpu.data         7570                       # number of ReadSharedReq accesses(hits+misses)
system.l2.ReadSharedReq_accesses::total          7570                       # number of ReadSharedReq accesses(hits+misses)
system.l2.ReadSharedReq_miss_rate::.cpu.data     0.069485                       # miss rate for ReadSharedReq accesses
system.l2.ReadSharedReq_miss_rate::total     0.069485                       # miss rate for ReadSharedReq accesses
system.l2.ReadSharedReq_avg_miss_latency::.cpu.data 100226.235741                       # average ReadSharedReq miss latency
system.l2.ReadSharedReq_avg_miss_latency::total 100226.235741                       # average ReadSharedReq miss latency
system.l2.ReadSharedReq_mshr_hits::.cpu.data            6                       # number of ReadSharedReq MSHR hits
system.l2.ReadSharedReq_mshr_hits::total            6                       # number of ReadSharedReq MSHR hits
system.l2.ReadSharedReq_mshr_misses::.cpu.data          520                       # number of ReadSharedReq MSHR misses
system.l2.ReadSharedReq_mshr_misses::total          520                       # number of ReadSharedReq MSHR misses
system.l2.ReadSharedReq_mshr_miss_latency::.cpu.data     41868000                       # number of ReadSharedReq MSHR miss cycles
system.l2.ReadSharedReq_mshr_miss_latency::total     41868000                       # number of ReadSharedReq MSHR miss cycles
system.l2.ReadSharedReq_mshr_miss_rate::.cpu.data     0.068692                       # mshr miss rate for ReadSharedReq accesses
system.l2.ReadSharedReq_mshr_miss_rate::total     0.068692                       # mshr miss rate for ReadSharedReq accesses
system.l2.ReadSharedReq_avg_mshr_miss_latency::.cpu.data 80515.384615                       # average ReadSharedReq mshr miss latency
system.l2.ReadSharedReq_avg_mshr_miss_latency::total 80515.384615                       # average ReadSharedReq mshr miss latency
system.l2.power_state.pwrStateResidencyTicks::UNDEFINED 118297437000                       # Cumulative time (in ticks) in various power states
system.l2.tags.tagsinuse                  5290.276497                       # Cycle average of tags in use
system.l2.tags.total_refs                       49849                       # Total number of references to valid blocks.
system.l2.tags.sampled_refs                      5489                       # Sample count of references to valid blocks.
system.l2.tags.avg_refs                      9.081618                       # Average number of references to valid blocks.
system.l2.tags.warmup_cycle                     87000                       # Cycle when the warmup percentage was hit.
system.l2.tags.occ_blocks::.cpu.inst      1297.062198                       # Average occupied blocks per requestor
system.l2.tags.occ_blocks::.cpu.data      3993.214300                       # Average occupied blocks per requestor
system.l2.tags.occ_percent::.cpu.inst        0.039583                       # Average percentage of cache occupancy
system.l2.tags.occ_percent::.cpu.data        0.121863                       # Average percentage of cache occupancy
system.l2.tags.occ_percent::total            0.161446                       # Average percentage of cache occupancy
system.l2.tags.occ_task_id_blocks::1024          5489                       # Occupied blocks per task id
system.l2.tags.age_task_id_blocks_1024::4         5489                       # Occupied blocks per task id
system.l2.tags.occ_task_id_percent::1024     0.167511                       # Percentage of cache occupancy per task id
system.l2.tags.tag_accesses                    404337                       # Number of tag accesses
system.l2.tags.data_accesses                   404337                       # Number of data accesses
system.l2.tags.power_state.pwrStateResidencyTicks::UNDEFINED 118297437000                       # Cumulative time (in ticks) in various power states
system.mem_ctrls.avgPriority_.cpu.inst::samples      1303.00                       # Average QoS priority value for accepted requests
system.mem_ctrls.avgPriority_.cpu.data::samples      4186.00                       # Average QoS priority value for accepted requests
system.mem_ctrls.priorityMinLatency      0.000000018750                       # per QoS priority minimum request to response latency (s)
system.mem_ctrls.priorityMaxLatency      0.000000578000                       # per QoS priority maximum request to response latency (s)
system.mem_ctrls.numReadWriteTurnArounds            0                       # Number of turnarounds from READ to WRITE
system.mem_ctrls.numWriteReadTurnArounds            0                       # Number of turnarounds from WRITE to READ
system.mem_ctrls.numStayReadState               41360                       # Number of times bus staying in READ state
system.mem_ctrls.numStayWriteState                  0                       # Number of times bus staying in WRITE state
system.mem_ctrls.readReqs                        5489                       # Number of read requests accepted
system.mem_ctrls.writeReqs                          0                       # Number of write requests accepted
system.mem_ctrls.readBursts                      5489                       # Number of controller read bursts, including those serviced by the write queue
system.mem_ctrls.writeBursts                        0                       # Number of controller write bursts, including those merged in the write queue
system.mem_ctrls.servicedByWrQ                      0                       # Number of controller read bursts serviced by the write queue
system.mem_ctrls.mergedWrBursts                     0                       # Number of controller write bursts merged with an existing one
system.mem_ctrls.neitherReadNorWriteReqs            0                       # Number of requests that are neither read nor write
system.mem_ctrls.avgRdQLen                       1.00                       # Average read queue length when enqueuing
system.mem_ctrls.avgWrQLen                       0.00                       # Average write queue length when enqueuing
system.mem_ctrls.numRdRetry                         0                       # Number of times read queue was full causing retry
system.mem_ctrls.numWrRetry                         0                       # Number of times write queue was full causing retry
system.mem_ctrls.readPktSize::0                     0                       # Read request sizes (log2)
system.mem_ctrls.readPktSize::1                     0                       # Read request sizes (log2)
system.mem_ctrls.readPktSize::2                     0                       # Read request sizes (log2)
system.mem_ctrls.readPktSize::3                     0                       # Read request sizes (log2)
system.mem_ctrls.readPktSize::4                     0                       # Read request sizes (log2)
system.mem_ctrls.readPktSize::5                     0                       # Read request sizes (log2)
system.mem_ctrls.readPktSize::6                  5489                       # Read request sizes (log2)
system.mem_ctrls.writePktSize::0                    0                       # Write request sizes (log2)
system.mem_ctrls.writePktSize::1                    0                       # Write request sizes (log2)
system.mem_ctrls.writePktSize::2                    0                       # Write request sizes (log2)
system.mem_ctrls.writePktSize::3                    0                       # Write request sizes (log2)
system.mem_ctrls.writePktSize::4                    0                       # Write request sizes (log2)
system.mem_ctrls.writePktSize::5                    0                       # Write request sizes (log2)
system.mem_ctrls.writePktSize::6                    0                       # Write request sizes (log2)
[...]
system.mem_ctrls.dram.bw_read::.cpu.data      2264664                       # Total read bandwidth from this memory (bytes/s)
system.mem_ctrls.dram.bw_read::total          2969599                       # Total read bandwidth from this memory (bytes/s)
system.mem_ctrls.dram.bw_inst_read::.cpu.inst       704935                       # Instruction read bandwidth from this memory (bytes/s)
system.mem_ctrls.dram.bw_inst_read::total       704935                       # Instruction read bandwidth from this memory (bytes/s)
system.mem_ctrls.dram.bw_total::.cpu.inst       704935                       # Total bandwidth to/from this memory (bytes/s)
system.mem_ctrls.dram.bw_total::.cpu.data      2264664                       # Total bandwidth to/from this memory (bytes/s)
system.mem_ctrls.dram.bw_total::total         2969599                       # Total bandwidth to/from this memory (bytes/s)
system.mem_ctrls.dram.readBursts                 5489                       # Number of DRAM read bursts
system.mem_ctrls.dram.writeBursts                   0                       # Number of DRAM write bursts
system.mem_ctrls.dram.perBankRdBursts::0          252                       # Per bank write bursts
system.mem_ctrls.dram.perBankRdBursts::1          274                       # Per bank write bursts
system.mem_ctrls.dram.perBankRdBursts::2          245                       # Per bank write bursts
system.mem_ctrls.dram.perBankRdBursts::3          403                       # Per bank write bursts
system.mem_ctrls.dram.perBankRdBursts::4          418                       # Per bank write bursts
system.mem_ctrls.dram.perBankRdBursts::5          373                       # Per bank write bursts
system.mem_ctrls.dram.perBankRdBursts::6          377                       # Per bank write bursts
system.mem_ctrls.dram.perBankRdBursts::7          400                       # Per bank write bursts
system.mem_ctrls.dram.perBankRdBursts::8          359                       # Per bank write bursts
system.mem_ctrls.dram.perBankRdBursts::9          291                       # Per bank write bursts
system.mem_ctrls.dram.perBankRdBursts::10          427                       # Per bank write bursts
system.mem_ctrls.dram.perBankRdBursts::11          288                       # Per bank write bursts
system.mem_ctrls.dram.perBankRdBursts::12          311                       # Per bank write bursts
system.mem_ctrls.dram.perBankRdBursts::13          339                       # Per bank write bursts
system.mem_ctrls.dram.perBankRdBursts::14          399                       # Per bank write bursts
system.mem_ctrls.dram.perBankRdBursts::15          333                       # Per bank write bursts
system.mem_ctrls.dram.perBankWrBursts::0            0                       # Per bank write bursts
system.mem_ctrls.dram.perBankWrBursts::1            0                       # Per bank write bursts
system.mem_ctrls.dram.perBankWrBursts::2            0                       # Per bank write bursts
system.mem_ctrls.dram.perBankWrBursts::3            0                       # Per bank write bursts
system.mem_ctrls.dram.perBankWrBursts::4            0                       # Per bank write bursts
system.mem_ctrls.dram.perBankWrBursts::5            0                       # Per bank write bursts
system.mem_ctrls.dram.perBankWrBursts::6            0                       # Per bank write bursts
system.mem_ctrls.dram.perBankWrBursts::7            0                       # Per bank write bursts
system.mem_ctrls.dram.perBankWrBursts::8            0                       # Per bank write bursts
system.mem_ctrls.dram.perBankWrBursts::9            0                       # Per bank write bursts
system.mem_ctrls.dram.perBankWrBursts::10            0                       # Per bank write bursts
system.mem_ctrls.dram.perBankWrBursts::11            0                       # Per bank write bursts
system.mem_ctrls.dram.perBankWrBursts::12            0                       # Per bank write bursts
system.mem_ctrls.dram.perBankWrBursts::13            0                       # Per bank write bursts
system.mem_ctrls.dram.perBankWrBursts::14            0                       # Per bank write bursts
system.mem_ctrls.dram.perBankWrBursts::15            0                       # Per bank write bursts
system.mem_ctrls.dram.totQLat                45208000                       # Total ticks spent queuing
system.mem_ctrls.dram.totBusLat              27445000                       # Total ticks spent in databus transfers
system.mem_ctrls.dram.totMemAccLat          148126750                       # Total ticks spent from burst creation until serviced by the DRAM
system.mem_ctrls.dram.avgQLat                 8236.11                       # Average queueing delay per DRAM burst
system.mem_ctrls.dram.avgBusLat               5000.00                       # Average bus latency per DRAM burst
system.mem_ctrls.dram.avgMemAccLat           26986.11                       # Average memory access latency per DRAM burst
system.mem_ctrls.dram.readRowHits                4005                       # Number of row buffer hits during reads
system.mem_ctrls.dram.writeRowHits                  0                       # Number of row buffer hits during writes
system.mem_ctrls.dram.readRowHitRate            72.96                       # Row buffer hit rate for reads
system.mem_ctrls.dram.writeRowHitRate             nan                       # Row buffer hit rate for writes
system.mem_ctrls.dram.bytesPerActivate::samples         1484                       # Bytes accessed per row activation
system.mem_ctrls.dram.bytesPerActivate::mean   236.722372                       # Bytes accessed per row activation
system.mem_ctrls.dram.bytesPerActivate::gmean   154.576191                       # Bytes accessed per row activation
system.mem_ctrls.dram.bytesPerActivate::stdev   266.406725                       # Bytes accessed per row activation
system.mem_ctrls.dram.bytesPerActivate::0-127          510     34.37%     34.37% # Bytes accessed per row activation
system.mem_ctrls.dram.bytesPerActivate::128-255          546     36.79%     71.16% # Bytes accessed per row activation
system.mem_ctrls.dram.bytesPerActivate::256-383          192     12.94%     84.10% # Bytes accessed per row activation
system.mem_ctrls.dram.bytesPerActivate::384-511           49      3.30%     87.40% # Bytes accessed per row activation
system.mem_ctrls.dram.bytesPerActivate::512-639           26      1.75%     89.15% # Bytes accessed per row activation
system.mem_ctrls.dram.bytesPerActivate::640-767           25      1.68%     90.84% # Bytes accessed per row activation
system.mem_ctrls.dram.bytesPerActivate::768-895           17      1.15%     91.98% # Bytes accessed per row activation
system.mem_ctrls.dram.bytesPerActivate::896-1023           17      1.15%     93.13% # Bytes accessed per row activation
system.mem_ctrls.dram.bytesPerActivate::1024-1151          102      6.87%    100.00% # Bytes accessed per row activation
system.mem_ctrls.dram.bytesPerActivate::total         1484                       # Bytes accessed per row activation
system.mem_ctrls.dram.bytesRead                351296                       # Total number of bytes read from DRAM
system.mem_ctrls.dram.bytesWritten                  0                       # Total number of bytes written to DRAM
system.mem_ctrls.dram.avgRdBW                2.969599                       # Average DRAM read bandwidth in MiBytes/s
system.mem_ctrls.dram.avgWrBW                       0                       # Average DRAM write bandwidth in MiBytes/s
system.mem_ctrls.dram.peakBW                 12800.00                       # Theoretical peak bandwidth in MiByte/s
system.mem_ctrls.dram.busUtil                    0.02                       # Data bus utilization in percentage
system.mem_ctrls.dram.busUtilRead                0.02                       # Data bus utilization in percentage for reads
system.mem_ctrls.dram.busUtilWrite               0.00                       # Data bus utilization in percentage for writes
system.mem_ctrls.dram.pageHitRate               72.96                       # Row buffer hit rate, read and write combined
system.mem_ctrls.dram.power_state.pwrStateResidencyTicks::UNDEFINED 118297437000                       # Cumulative time (in ticks) in various power states
system.mem_ctrls.dram.rank0.actEnergy         5390700                       # Energy for activate commands per rank (pJ)
system.mem_ctrls.dram.rank0.preEnergy         2865225                       # Energy for precharge commands per rank (pJ)
system.mem_ctrls.dram.rank0.readEnergy       19577880                       # Energy for read commands per rank (pJ)
system.mem_ctrls.dram.rank0.writeEnergy             0                       # Energy for write commands per rank (pJ)
system.mem_ctrls.dram.rank0.refreshEnergy 9338225520.000002                       # Energy for refresh commands per rank (pJ)
system.mem_ctrls.dram.rank0.actBackEnergy   2724240900                       # Energy for active background per rank (pJ)
system.mem_ctrls.dram.rank0.preBackEnergy  43132118400                       # Energy for precharge background per rank (pJ)
system.mem_ctrls.dram.rank0.actPowerDownEnergy            0                       # Energy for active power-down per rank (pJ)
system.mem_ctrls.dram.rank0.prePowerDownEnergy            0                       # Energy for precharge power-down per rank (pJ)
system.mem_ctrls.dram.rank0.selfRefreshEnergy            0                       # Energy for self refresh per rank (pJ)
system.mem_ctrls.dram.rank0.totalEnergy   55222418625                       # Total energy per rank (pJ)
system.mem_ctrls.dram.rank0.averagePower   466.809933                       # Core power per rank (mW)
system.mem_ctrls.dram.rank0.totalIdleTime            0                       # Total Idle time Per DRAM Rank
system.mem_ctrls.dram.rank0.pwrStateTime::IDLE 112108458000                       # Time in different power states
system.mem_ctrls.dram.rank0.pwrStateTime::REF   3950180000                       # Time in different power states
system.mem_ctrls.dram.rank0.pwrStateTime::SREF            0                       # Time in different power states
system.mem_ctrls.dram.rank0.pwrStateTime::PRE_PDN            0                       # Time in different power states
system.mem_ctrls.dram.rank0.pwrStateTime::ACT   2238799000                       # Time in different power states
system.mem_ctrls.dram.rank0.pwrStateTime::ACT_PDN            0                       # Time in different power states
system.mem_ctrls.dram.rank1.actEnergy         5205060                       # Energy for activate commands per rank (pJ)
system.mem_ctrls.dram.rank1.preEnergy         2766555                       # Energy for precharge commands per rank (pJ)
system.mem_ctrls.dram.rank1.readEnergy       19613580                       # Energy for read commands per rank (pJ)
system.mem_ctrls.dram.rank1.writeEnergy             0                       # Energy for write commands per rank (pJ)
system.mem_ctrls.dram.rank1.refreshEnergy 9338225520.000002                       # Energy for refresh commands per rank (pJ)
system.mem_ctrls.dram.rank1.actBackEnergy   2657786310                       # Energy for active background per rank (pJ)
system.mem_ctrls.dram.rank1.preBackEnergy  43188080160                       # Energy for precharge background per rank (pJ)
system.mem_ctrls.dram.rank1.actPowerDownEnergy            0                       # Energy for active power-down per rank (pJ)
system.mem_ctrls.dram.rank1.prePowerDownEnergy            0                       # Energy for precharge power-down per rank (pJ)
system.mem_ctrls.dram.rank1.selfRefreshEnergy            0                       # Energy for self refresh per rank (pJ)
system.mem_ctrls.dram.rank1.totalEnergy   55211677185                       # Total energy per rank (pJ)
system.mem_ctrls.dram.rank1.averagePower   466.719133                       # Core power per rank (mW)
system.mem_ctrls.dram.rank1.totalIdleTime            0                       # Total Idle time Per DRAM Rank
system.mem_ctrls.dram.rank1.pwrStateTime::IDLE 112254150500                       # Time in different power states
system.mem_ctrls.dram.rank1.pwrStateTime::REF   3950180000                       # Time in different power states
system.mem_ctrls.dram.rank1.pwrStateTime::SREF            0                       # Time in different power states
system.mem_ctrls.dram.rank1.pwrStateTime::PRE_PDN            0                       # Time in different power states
system.mem_ctrls.dram.rank1.pwrStateTime::ACT   2093106500                       # Time in different power states
system.mem_ctrls.dram.rank1.pwrStateTime::ACT_PDN            0                       # Time in different power states
system.mem_ctrls.power_state.pwrStateResidencyTicks::UNDEFINED 118297437000                       # Cumulative time (in ticks) in various power states
system.membus.trans_dist::ReadResp               1823                       # Transaction distribution
system.membus.trans_dist::ReadExReq              3666                       # Transaction distribution
system.membus.trans_dist::ReadExResp             3666                       # Transaction distribution
system.membus.trans_dist::ReadSharedReq          1823                       # Transaction distribution
system.membus.pkt_count_system.l2.mem_side_port::system.mem_ctrls.port        10978                       # Packet count per connected requestor and responder (bytes)
system.membus.pkt_count::total                  10978                       # Packet count per connected requestor and responder (bytes)
system.membus.pkt_size_system.l2.mem_side_port::system.mem_ctrls.port       351296                       # Cumulative packet size per connected requestor and responder (bytes)
system.membus.pkt_size::total                  351296                       # Cumulative packet size per connected requestor and responder (bytes)
system.membus.snoops                                0                       # Total snoops (count)
system.membus.snoopTraffic                          0                       # Total snoop traffic (bytes)
system.membus.snoop_fanout::samples              5489                       # Request fanout histogram
system.membus.snoop_fanout::mean                    0                       # Request fanout histogram
system.membus.snoop_fanout::stdev                   0                       # Request fanout histogram
system.membus.snoop_fanout::underflows              0      0.00%      0.00% # Request fanout histogram
system.membus.snoop_fanout::0                    5489    100.00%    100.00% # Request fanout histogram
system.membus.snoop_fanout::1                       0      0.00%    100.00% # Request fanout histogram
system.membus.snoop_fanout::overflows               0      0.00%    100.00% # Request fanout histogram
system.membus.snoop_fanout::min_value               0                       # Request fanout histogram
system.membus.snoop_fanout::max_value               0                       # Request fanout histogram
system.membus.snoop_fanout::total                5489                       # Request fanout histogram
system.membus.power_state.pwrStateResidencyTicks::UNDEFINED 118297437000                       # Cumulative time (in ticks) in various power states
system.membus.reqLayer0.occupancy             5489000                       # Layer occupancy (ticks)
system.membus.reqLayer0.utilization               0.0                       # Layer utilization (%)
system.membus.respLayer1.occupancy           29187500                       # Layer occupancy (ticks)
system.membus.respLayer1.utilization              0.0                       # Layer utilization (%)
system.tol2bus.trans_dist::ReadResp              8937                       # Transaction distribution
system.tol2bus.trans_dist::WritebackDirty        22128                       # Transaction distribution
system.tol2bus.trans_dist::WritebackClean          126                       # Transaction distribution
system.tol2bus.trans_dist::CleanEvict            1336                       # Transaction distribution
system.tol2bus.trans_dist::ReadExReq            17942                       # Transaction distribution
system.tol2bus.trans_dist::ReadExResp           17942                       # Transaction distribution
system.tol2bus.trans_dist::ReadCleanReq          1367                       # Transaction distribution
system.tol2bus.trans_dist::ReadSharedReq         7570                       # Transaction distribution
system.tol2bus.pkt_count_system.cpu.icache.mem_side_port::system.l2.cpu_side_port         2860                       # Packet count per connected requestor and responder (bytes)
system.tol2bus.pkt_count_system.cpu.dcache.mem_side_port::system.l2.cpu_side_port        74488                       # Packet count per connected requestor and responder (bytes)
system.tol2bus.pkt_count::total                 77348                       # Packet count per connected requestor and responder (bytes)
system.tol2bus.pkt_size_system.cpu.icache.mem_side_port::system.l2.cpu_side_port        95552                       # Cumulative packet size per connected requestor and responder (bytes)
system.tol2bus.pkt_size_system.cpu.dcache.mem_side_port::system.l2.cpu_side_port      3048960                       # Cumulative packet size per connected requestor and responder (bytes)
system.tol2bus.pkt_size::total                3144512                       # Cumulative packet size per connected requestor and responder (bytes)
system.tol2bus.snoops                               0                       # Total snoops (count)
system.tol2bus.snoopTraffic                         0                       # Total snoop traffic (bytes)
system.tol2bus.snoop_fanout::samples            26879                       # Request fanout histogram
system.tol2bus.snoop_fanout::mean            0.023401                       # Request fanout histogram
system.tol2bus.snoop_fanout::stdev           0.151177                       # Request fanout histogram
system.tol2bus.snoop_fanout::underflows             0      0.00%      0.00% # Request fanout histogram
system.tol2bus.snoop_fanout::0                  26250     97.66%     97.66% # Request fanout histogram
system.tol2bus.snoop_fanout::1                    629      2.34%    100.00% # Request fanout histogram
system.tol2bus.snoop_fanout::2                      0      0.00%    100.00% # Request fanout histogram
system.tol2bus.snoop_fanout::overflows              0      0.00%    100.00% # Request fanout histogram
system.tol2bus.snoop_fanout::min_value              0                       # Request fanout histogram
system.tol2bus.snoop_fanout::max_value              1                       # Request fanout histogram
system.tol2bus.snoop_fanout::total              26879                       # Request fanout histogram
system.tol2bus.power_state.pwrStateResidencyTicks::UNDEFINED 118297437000                       # Cumulative time (in ticks) in various power states
system.tol2bus.reqLayer0.occupancy           94977000                       # Layer occupancy (ticks)
system.tol2bus.reqLayer0.utilization              0.1                       # Layer utilization (%)
system.tol2bus.respLayer0.occupancy           4101999                       # Layer occupancy (ticks)
system.tol2bus.respLayer0.utilization             0.0                       # Layer utilization (%)
system.tol2bus.respLayer1.occupancy          76541994                       # Layer occupancy (ticks)
system.tol2bus.respLayer1.utilization             0.1                       # Layer utilization (%)
system.voltage_domain.voltage                       1                       # Voltage in Volts

---------- End Simulation Statistics   ----------
