
---------- Begin Simulation Statistics ----------
final_tick                                   32985000                       # Number of ticks from beginning of simulation (restored from checkpoints and never reset)
host_inst_rate                                 131666                       # Simulator instruction rate (inst/s)
host_mem_usage                                 774324                       # Number of bytes of host memory used
host_op_rate                                   151926                       # Simulator op (including micro ops) rate (op/s)
host_seconds                                     0.07                       # Real time elapsed on the host
host_tick_rate                              486791079                       # Simulator tick rate (ticks/s)
sim_freq                                 1000000000000                       # Frequency of simulated ticks
sim_insts                                        8909                       # Number of instructions simulated
sim_ops                                         10292                       # Number of ops (including micro ops) simulated
sim_seconds                                  0.000033                       # Number of seconds simulated
sim_ticks                                    32985000                       # Number of ticks simulated
system.cpu00.committedInsts                      8909                       # Number of instructions committed
system.cpu00.committedOps                       10292                       # Number of ops (including micro ops) committed
system.cpu00.cpi                             7.404871                       # CPI: cycles per instruction
system.cpu00.discardedOps                        1804                       # Number of ops (including micro ops) which were discarded before commit
system.cpu00.idleCycles                         48719                       # Total number of cycles that the object has spent stopped
system.cpu00.ipc                             0.135046                       # IPC: instructions per cycle
system.cpu00.numCycles                          65970                       # number of cpu cycles simulated
system.cpu00.numFetchSuspends                       0                       # Number of times Execute suspended instruction fetching
system.cpu00.numWorkItemsCompleted                  0                       # number of work items this cpu completed
system.cpu00.numWorkItemsStarted                    0                       # number of work items this cpu started
system.cpu00.op_class_0::No_OpClass                 0      0.00%      0.00% # Class of committed instruction
system.cpu00.op_class_0::IntAlu                  7128     69.26%     69.26% # Class of committed instruction
system.cpu00.op_class_0::IntMult                   48      0.47%     69.72% # Class of committed instruction
system.cpu00.op_class_0::IntDiv                     0      0.00%     69.72% # Class of committed instruction
system.cpu00.op_class_0::FloatAdd                   0      0.00%     69.72% # Class of committed instruction
system.cpu00.op_class_0::FloatCmp                   0      0.00%     69.72% # Class of committed instruction
system.cpu00.op_class_0::FloatCvt                   0      0.00%     69.72% # Class of committed instruction
system.cpu00.op_class_0::FloatMult                  0      0.00%     69.72% # Class of committed instruction
system.cpu00.op_class_0::FloatMultAcc               0      0.00%     69.72% # Class of committed instruction
system.cpu00.op_class_0::FloatDiv                   0      0.00%     69.72% # Class of committed instruction
system.cpu00.op_class_0::FloatMisc                  0      0.00%     69.72% # Class of committed instruction
system.cpu00.op_class_0::FloatSqrt                  0      0.00%     69.72% # Class of committed instruction
system.cpu00.op_class_0::SimdAdd                    0      0.00%     69.72% # Class of committed instruction
system.cpu00.op_class_0::SimdAddAcc                 0      0.00%     69.72% # Class of committed instruction
system.cpu00.op_class_0::SimdAlu                    0      0.00%     69.72% # Class of committed instruction
system.cpu00.op_class_0::SimdCmp                    0      0.00%     69.72% # Class of committed instruction
system.cpu00.op_class_0::SimdCvt                    0      0.00%     69.72% # Class of committed instruction
system.cpu00.op_class_0::SimdMisc                   0      0.00%     69.72% # Class of committed instruction
system.cpu00.op_class_0::SimdMult                   0      0.00%     69.72% # Class of committed instruction
system.cpu00.op_class_0::SimdMultAcc                0      0.00%     69.72% # Class of committed instruction
system.cpu00.op_class_0::SimdShift                  0      0.00%     69.72% # Class of committed instruction
system.cpu00.op_class_0::SimdShiftAcc               0      0.00%     69.72% # Class of committed instruction
system.cpu00.op_class_0::SimdDiv                    0      0.00%     69.72% # Class of committed instruction
system.cpu00.op_class_0::SimdSqrt                   0      0.00%     69.72% # Class of committed instruction
system.cpu00.op_class_0::SimdFloatAdd               0      0.00%     69.72% # Class of committed instruction
system.cpu00.op_class_0::SimdFloatAlu               0      0.00%     69.72% # Class of committed instruction
system.cpu00.op_class_0::SimdFloatCmp               0      0.00%     69.72% # Class of committed instruction
system.cpu00.op_class_0::SimdFloatCvt               0      0.00%     69.72% # Class of committed instruction
system.cpu00.op_class_0::SimdFloatDiv               0      0.00%     69.72% # Class of committed instruction
system.cpu00.op_class_0::SimdFloatMisc             21      0.20%     69.93% # Class of committed instruction
system.cpu00.op_class_0::SimdFloatMult              0      0.00%     69.93% # Class of committed instruction
system.cpu00.op_class_0::SimdFloatMultAcc            0      0.00%     69.93% # Class of committed instruction
system.cpu00.op_class_0::SimdFloatSqrt              0      0.00%     69.93% # Class of committed instruction
system.cpu00.op_class_0::SimdReduceAdd              0      0.00%     69.93% # Class of committed instruction
system.cpu00.op_class_0::SimdReduceAlu              0      0.00%     69.93% # Class of committed instruction
system.cpu00.op_class_0::SimdReduceCmp              0      0.00%     69.93% # Class of committed instruction
system.cpu00.op_class_0::SimdFloatReduceAdd            0      0.00%     69.93% # Class of committed instruction
system.cpu00.op_class_0::SimdFloatReduceCmp            0      0.00%     69.93% # Class of committed instruction
system.cpu00.op_class_0::SimdAes                    0      0.00%     69.93% # Class of committed instruction
system.cpu00.op_class_0::SimdAesMix                 0      0.00%     69.93% # Class of committed instruction
system.cpu00.op_class_0::SimdSha1Hash               0      0.00%     69.93% # Class of committed instruction
system.cpu00.op_class_0::SimdSha1Hash2              0      0.00%     69.93% # Class of committed instruction
system.cpu00.op_class_0::SimdSha256Hash             0      0.00%     69.93% # Class of committed instruction
system.cpu00.op_class_0::SimdSha256Hash2            0      0.00%     69.93% # Class of committed instruction
system.cpu00.op_class_0::SimdShaSigma2              0      0.00%     69.93% # Class of committed instruction
system.cpu00.op_class_0::SimdShaSigma3              0      0.00%     69.93% # Class of committed instruction
system.cpu00.op_class_0::SimdPredAlu                0      0.00%     69.93% # Class of committed instruction
system.cpu00.op_class_0::MemRead                 1483     14.41%     84.34% # Class of committed instruction
system.cpu00.op_class_0::MemWrite                1612     15.66%    100.00% # Class of committed instruction
system.cpu00.op_class_0::FloatMemRead               0      0.00%    100.00% # Class of committed instruction
system.cpu00.op_class_0::FloatMemWrite              0      0.00%    100.00% # Class of committed instruction
system.cpu00.op_class_0::IprAccess                  0      0.00%    100.00% # Class of committed instruction
system.cpu00.op_class_0::InstPrefetch               0      0.00%    100.00% # Class of committed instruction
system.cpu00.op_class_0::total                  10292                       # Class of committed instruction
system.cpu00.tickCycles                         17251                       # Number of cycles that the object actually ticked
system.cpu00.workload.numSyscalls                  13                       # Number of system calls
system.cpu01.committedInsts                         0                       # Number of instructions committed
system.cpu01.committedOps                           0                       # Number of ops (including micro ops) committed
system.cpu01.cpi                                  inf                       # CPI: cycles per instruction
system.cpu01.discardedOps                           0                       # Number of ops (including micro ops) which were discarded before commit
system.cpu01.idleCycles                             0                       # Total number of cycles that the object has spent stopped
system.cpu01.ipc                             0.000000                       # IPC: instructions per cycle
system.cpu01.numCycles                              2                       # number of cpu cycles simulated
system.cpu01.numFetchSuspends                       0                       # Number of times Execute suspended instruction fetching
system.cpu01.numWorkItemsCompleted                  0                       # number of work items this cpu completed
system.cpu01.numWorkItemsStarted                    0                       # number of work items this cpu started
system.cpu01.op_class_0::No_OpClass                 0                       # Class of committed instruction
system.cpu01.op_class_0::IntAlu                     0                       # Class of committed instruction
system.cpu01.op_class_0::IntMult                    0                       # Class of committed instruction
system.cpu01.op_class_0::IntDiv                     0                       # Class of committed instruction
system.cpu01.op_class_0::FloatAdd                   0                       # Class of committed instruction
system.cpu01.op_class_0::FloatCmp                   0                       # Class of committed instruction
system.cpu01.op_class_0::FloatCvt                   0                       # Class of committed instruction
system.cpu01.op_class_0::FloatMult                  0                       # Class of committed instruction
system.cpu01.op_class_0::FloatMultAcc               0                       # Class of committed instruction
system.cpu01.op_class_0::FloatDiv                   0                       # Class of committed instruction
system.cpu01.op_class_0::FloatMisc                  0                       # Class of committed instruction
system.cpu01.op_class_0::FloatSqrt                  0                       # Class of committed instruction
system.cpu01.op_class_0::SimdAdd                    0                       # Class of committed instruction
system.cpu01.op_class_0::SimdAddAcc                 0                       # Class of committed instruction
system.cpu01.op_class_0::SimdAlu                    0                       # Class of committed instruction
system.cpu01.op_class_0::SimdCmp                    0                       # Class of committed instruction
system.cpu01.op_class_0::SimdCvt                    0                       # Class of committed instruction
system.cpu01.op_class_0::SimdMisc                   0                       # Class of committed instruction
system.cpu01.op_class_0::SimdMult                   0                       # Class of committed instruction
system.cpu01.op_class_0::SimdMultAcc                0                       # Class of committed instruction
system.cpu01.op_class_0::SimdShift                  0                       # Class of committed instruction
system.cpu01.op_class_0::SimdShiftAcc               0                       # Class of committed instruction
system.cpu01.op_class_0::SimdDiv                    0                       # Class of committed instruction
system.cpu01.op_class_0::SimdSqrt                   0                       # Class of committed instruction
system.cpu01.op_class_0::SimdFloatAdd               0                       # Class of committed instruction
system.cpu01.op_class_0::SimdFloatAlu               0                       # Class of committed instruction
system.cpu01.op_class_0::SimdFloatCmp               0                       # Class of committed instruction
system.cpu01.op_class_0::SimdFloatCvt               0                       # Class of committed instruction
system.cpu01.op_class_0::SimdFloatDiv               0                       # Class of committed instruction
system.cpu01.op_class_0::SimdFloatMisc              0                       # Class of committed instruction
system.cpu01.op_class_0::SimdFloatMult              0                       # Class of committed instruction
system.cpu01.op_class_0::SimdFloatMultAcc            0                       # Class of committed instruction
system.cpu01.op_class_0::SimdFloatSqrt              0                       # Class of committed instruction
system.cpu01.op_class_0::SimdReduceAdd              0                       # Class of committed instruction
system.cpu01.op_class_0::SimdReduceAlu              0                       # Class of committed instruction
system.cpu01.op_class_0::SimdReduceCmp              0                       # Class of committed instruction
system.cpu01.op_class_0::SimdFloatReduceAdd            0                       # Class of committed instruction
system.cpu01.op_class_0::SimdFloatReduceCmp            0                       # Class of committed instruction
system.cpu01.op_class_0::SimdAes                    0                       # Class of committed instruction
system.cpu01.op_class_0::SimdAesMix                 0                       # Class of committed instruction
system.cpu01.op_class_0::SimdSha1Hash               0                       # Class of committed instruction
system.cpu01.op_class_0::SimdSha1Hash2              0                       # Class of committed instruction
system.cpu01.op_class_0::SimdSha256Hash             0                       # Class of committed instruction
system.cpu01.op_class_0::SimdSha256Hash2            0                       # Class of committed instruction
system.cpu01.op_class_0::SimdShaSigma2              0                       # Class of committed instruction
system.cpu01.op_class_0::SimdShaSigma3              0                       # Class of committed instruction
system.cpu01.op_class_0::SimdPredAlu                0                       # Class of committed instruction
system.cpu01.op_class_0::MemRead                    0                       # Class of committed instruction
system.cpu01.op_class_0::MemWrite                   0                       # Class of committed instruction
system.cpu01.op_class_0::FloatMemRead               0                       # Class of committed instruction
system.cpu01.op_class_0::FloatMemWrite              0                       # Class of committed instruction
system.cpu01.op_class_0::IprAccess                  0                       # Class of committed instruction
system.cpu01.op_class_0::InstPrefetch               0                       # Class of committed instruction
system.cpu01.op_class_0::total                      0                       # Class of committed instruction
system.cpu01.tickCycles                             2                       # Number of cycles that the object actually ticked
system.cpu02.committedInsts                         0                       # Number of instructions committed
system.cpu02.committedOps                           0                       # Number of ops (including micro ops) committed
system.cpu02.cpi                                  inf                       # CPI: cycles per instruction
system.cpu02.discardedOps                           0                       # Number of ops (including micro ops) which were discarded before commit
system.cpu02.idleCycles                             0                       # Total number of cycles that the object has spent stopped
system.cpu02.ipc                             0.000000                       # IPC: instructions per cycle
system.cpu02.numCycles                              2                       # number of cpu cycles simulated
system.cpu02.numFetchSuspends                       0                       # Number of times Execute suspended instruction fetching
system.cpu02.numWorkItemsCompleted                  0                       # number of work items this cpu completed
system.cpu02.numWorkItemsStarted                    0                       # number of work items this cpu started
system.cpu02.op_class_0::No_OpClass                 0                       # Class of committed instruction
system.cpu02.op_class_0::IntAlu                     0                       # Class of committed instruction
system.cpu02.op_class_0::IntMult                    0                       # Class of committed instruction
system.cpu02.op_class_0::IntDiv                     0                       # Class of committed instruction
system.cpu02.op_class_0::FloatAdd                   0                       # Class of committed instruction
system.cpu02.op_class_0::FloatCmp                   0                       # Class of committed instruction
system.cpu02.op_class_0::FloatCvt                   0                       # Class of committed instruction
system.cpu02.op_class_0::FloatMult                  0                       # Class of committed instruction
system.cpu02.op_class_0::FloatMultAcc               0                       # Class of committed instruction
system.cpu02.op_class_0::FloatDiv                   0                       # Class of committed instruction
system.cpu02.op_class_0::FloatMisc                  0                       # Class of committed instruction
system.cpu02.op_class_0::FloatSqrt                  0                       # Class of committed instruction
system.cpu02.op_class_0::SimdAdd                    0                       # Class of committed instruction
system.cpu02.op_class_0::SimdAddAcc                 0                       # Class of committed instruction
system.cpu02.op_class_0::SimdAlu                    0                       # Class of committed instruction
system.cpu02.op_class_0::SimdCmp                    0                       # Class of committed instruction
system.cpu02.op_class_0::SimdCvt                    0                       # Class of committed instruction
system.cpu02.op_class_0::SimdMisc                   0                       # Class of committed instruction
system.cpu02.op_class_0::SimdMult                   0                       # Class of committed instruction
system.cpu02.op_class_0::SimdMultAcc                0                       # Class of committed instruction
system.cpu02.op_class_0::SimdShift                  0                       # Class of committed instruction
system.cpu02.op_class_0::SimdShiftAcc               0                       # Class of committed instruction
system.cpu02.op_class_0::SimdDiv                    0                       # Class of committed instruction
system.cpu02.op_class_0::SimdSqrt                   0                       # Class of committed instruction
system.cpu02.op_class_0::SimdFloatAdd               0                       # Class of committed instruction
system.cpu02.op_class_0::SimdFloatAlu               0                       # Class of committed instruction
system.cpu02.op_class_0::SimdFloatCmp               0                       # Class of committed instruction
system.cpu02.op_class_0::SimdFloatCvt               0                       # Class of committed instruction
system.cpu02.op_class_0::SimdFloatDiv               0                       # Class of committed instruction
system.cpu02.op_class_0::SimdFloatMisc              0                       # Class of committed instruction
system.cpu02.op_class_0::SimdFloatMult              0                       # Class of committed instruction
system.cpu02.op_class_0::SimdFloatMultAcc            0                       # Class of committed instruction
system.cpu02.op_class_0::SimdFloatSqrt              0                       # Class of committed instruction
system.cpu02.op_class_0::SimdReduceAdd              0                       # Class of committed instruction
system.cpu02.op_class_0::SimdReduceAlu              0                       # Class of committed instruction
system.cpu02.op_class_0::SimdReduceCmp              0                       # Class of committed instruction
system.cpu02.op_class_0::SimdFloatReduceAdd            0                       # Class of committed instruction
system.cpu02.op_class_0::SimdFloatReduceCmp            0                       # Class of committed instruction
system.cpu02.op_class_0::SimdAes                    0                       # Class of committed instruction
system.cpu02.op_class_0::SimdAesMix                 0                       # Class of committed instruction
system.cpu02.op_class_0::SimdSha1Hash               0                       # Class of committed instruction
system.cpu02.op_class_0::SimdSha1Hash2              0                       # Class of committed instruction
system.cpu02.op_class_0::SimdSha256Hash             0                       # Class of committed instruction
system.cpu02.op_class_0::SimdSha256Hash2            0                       # Class of committed instruction
system.cpu02.op_class_0::SimdShaSigma2              0                       # Class of committed instruction
system.cpu02.op_class_0::SimdShaSigma3              0                       # Class of committed instruction
system.cpu02.op_class_0::SimdPredAlu                0                       # Class of committed instruction
system.cpu02.op_class_0::MemRead                    0                       # Class of committed instruction
system.cpu02.op_class_0::MemWrite                   0                       # Class of committed instruction
system.cpu02.op_class_0::FloatMemRead               0                       # Class of committed instruction
system.cpu02.op_class_0::FloatMemWrite              0                       # Class of committed instruction
system.cpu02.op_class_0::IprAccess                  0                       # Class of committed instruction
system.cpu02.op_class_0::InstPrefetch               0                       # Class of committed instruction
system.cpu02.op_class_0::total                      0                       # Class of committed instruction
system.cpu02.tickCycles                             2                       # Number of cycles that the object actually ticked
system.cpu03.committedInsts                         0                       # Number of instructions committed
system.cpu03.committedOps                           0                       # Number of ops (including micro ops) committed
system.cpu03.cpi                                  inf                       # CPI: cycles per instruction
system.cpu03.discardedOps                           0                       # Number of ops (including micro ops) which were discarded before commit
system.cpu03.idleCycles                             0                       # Total number of cycles that the object has spent stopped
system.cpu03.ipc                             0.000000                       # IPC: instructions per cycle
system.cpu03.numCycles                              2                       # number of cpu cycles simulated
system.cpu03.numFetchSuspends                       0                       # Number of times Execute suspended instruction fetching
system.cpu03.numWorkItemsCompleted                  0                       # number of work items this cpu completed
system.cpu03.numWorkItemsStarted                    0                       # number of work items this cpu started
system.cpu03.op_class_0::No_OpClass                 0                       # Class of committed instruction
system.cpu03.op_class_0::IntAlu                     0                       # Class of committed instruction
system.cpu03.op_class_0::IntMult                    0                       # Class of committed instruction
system.cpu03.op_class_0::IntDiv                     0                       # Class of committed instruction
system.cpu03.op_class_0::FloatAdd                   0                       # Class of committed instruction
system.cpu03.op_class_0::FloatCmp                   0                       # Class of committed instruction
system.cpu03.op_class_0::FloatCvt                   0                       # Class of committed instruction
system.cpu03.op_class_0::FloatMult                  0                       # Class of committed instruction
system.cpu03.op_class_0::FloatMultAcc               0                       # Class of committed instruction
system.cpu03.op_class_0::FloatDiv                   0                       # Class of committed instruction
system.cpu03.op_class_0::FloatMisc                  0                       # Class of committed instruction
system.cpu03.op_class_0::FloatSqrt                  0                       # Class of committed instruction
system.cpu03.op_class_0::SimdAdd                    0                       # Class of committed instruction
system.cpu03.op_class_0::SimdAddAcc                 0                       # Class of committed instruction
system.cpu03.op_class_0::SimdAlu                    0                       # Class of committed instruction
system.cpu03.op_class_0::SimdCmp                    0                       # Class of committed instruction
system.cpu03.op_class_0::SimdCvt                    0                       # Class of committed instruction
system.cpu03.op_class_0::SimdMisc                   0                       # Class of committed instruction
system.cpu03.op_class_0::SimdMult                   0                       # Class of committed instruction
system.cpu03.op_class_0::SimdMultAcc                0                       # Class of committed instruction
system.cpu03.op_class_0::SimdShift                  0                       # Class of committed instruction
system.cpu03.op_class_0::SimdShiftAcc               0                       # Class of committed instruction
system.cpu03.op_class_0::SimdDiv                    0                       # Class of committed instruction
system.cpu03.op_class_0::SimdSqrt                   0                       # Class of committed instruction
system.cpu03.op_class_0::SimdFloatAdd               0                       # Class of committed instruction
system.cpu03.op_class_0::SimdFloatAlu               0                       # Class of committed instruction
system.cpu03.op_class_0::SimdFloatCmp               0                       # Class of committed instruction
system.cpu03.op_class_0::SimdFloatCvt               0                       # Class of committed instruction
system.cpu03.op_class_0::SimdFloatDiv               0                       # Class of committed instruction
system.cpu03.op_class_0::SimdFloatMisc              0                       # Class of committed instruction
system.cpu03.op_class_0::SimdFloatMult              0                       # Class of committed instruction
system.cpu03.op_class_0::SimdFloatMultAcc            0                       # Class of committed instruction
system.cpu03.op_class_0::SimdFloatSqrt              0                       # Class of committed instruction
system.cpu03.op_class_0::SimdReduceAdd              0                       # Class of committed instruction
system.cpu03.op_class_0::SimdReduceAlu              0                       # Class of committed instruction
system.cpu03.op_class_0::SimdReduceCmp              0                       # Class of committed instruction
system.cpu03.op_class_0::SimdFloatReduceAdd            0                       # Class of committed instruction
system.cpu03.op_class_0::SimdFloatReduceCmp            0                       # Class of committed instruction
system.cpu03.op_class_0::SimdAes                    0                       # Class of committed instruction
system.cpu03.op_class_0::SimdAesMix                 0                       # Class of committed instruction
system.cpu03.op_class_0::SimdSha1Hash               0                       # Class of committed instruction
system.cpu03.op_class_0::SimdSha1Hash2              0                       # Class of committed instruction
system.cpu03.op_class_0::SimdSha256Hash             0                       # Class of committed instruction
system.cpu03.op_class_0::SimdSha256Hash2            0                       # Class of committed instruction
system.cpu03.op_class_0::SimdShaSigma2              0                       # Class of committed instruction
system.cpu03.op_class_0::SimdShaSigma3              0                       # Class of committed instruction
system.cpu03.op_class_0::SimdPredAlu                0                       # Class of committed instruction
system.cpu03.op_class_0::MemRead                    0                       # Class of committed instruction
system.cpu03.op_class_0::MemWrite                   0                       # Class of committed instruction
system.cpu03.op_class_0::FloatMemRead               0                       # Class of committed instruction
system.cpu03.op_class_0::FloatMemWrite              0                       # Class of committed instruction
system.cpu03.op_class_0::IprAccess                  0                       # Class of committed instruction
system.cpu03.op_class_0::InstPrefetch               0                       # Class of committed instruction
system.cpu03.op_class_0::total                      0                       # Class of committed instruction
system.cpu03.tickCycles                             2                       # Number of cycles that the object actually ticked
system.cpu04.committedInsts                         0                       # Number of instructions committed
system.cpu04.committedOps                           0                       # Number of ops (including micro ops) committed
system.cpu04.cpi                                  inf                       # CPI: cycles per instruction
system.cpu04.discardedOps                           0                       # Number of ops (including micro ops) which were discarded before commit
system.cpu04.idleCycles                             0                       # Total number of cycles that the object has spent stopped
system.cpu04.ipc                             0.000000                       # IPC: instructions per cycle
system.cpu04.numCycles                              2                       # number of cpu cycles simulated
system.cpu04.numFetchSuspends                       0                       # Number of times Execute suspended instruction fetching
system.cpu04.numWorkItemsCompleted                  0                       # number of work items this cpu completed
system.cpu04.numWorkItemsStarted                    0                       # number of work items this cpu started
system.cpu04.op_class_0::No_OpClass                 0                       # Class of committed instruction
system.cpu04.op_class_0::IntAlu                     0                       # Class of committed instruction
system.cpu04.op_class_0::IntMult                    0                       # Class of committed instruction
system.cpu04.op_class_0::IntDiv                     0                       # Class of committed instruction
system.cpu04.op_class_0::FloatAdd                   0                       # Class of committed instruction
system.cpu04.op_class_0::FloatCmp                   0                       # Class of committed instruction
system.cpu04.op_class_0::FloatCvt                   0                       # Class of committed instruction
system.cpu04.op_class_0::FloatMult                  0                       # Class of committed instruction
system.cpu04.op_class_0::FloatMultAcc               0                       # Class of committed instruction
system.cpu04.op_class_0::FloatDiv                   0                       # Class of committed instruction
system.cpu04.op_class_0::FloatMisc                  0                       # Class of committed instruction
system.cpu04.op_class_0::FloatSqrt                  0                       # Class of committed instruction
system.cpu04.op_class_0::SimdAdd                    0                       # Class of committed instruction
system.cpu04.op_class_0::SimdAddAcc                 0                       # Class of committed instruction
system.cpu04.op_class_0::SimdAlu                    0                       # Class of committed instruction
system.cpu04.op_class_0::SimdCmp                    0                       # Class of committed instruction
system.cpu04.op_class_0::SimdCvt                    0                       # Class of committed instruction
system.cpu04.op_class_0::SimdMisc                   0                       # Class of committed instruction
system.cpu04.op_class_0::SimdMult                   0                       # Class of committed instruction
system.cpu04.op_class_0::SimdMultAcc                0                       # Class of committed instruction
system.cpu04.op_class_0::SimdShift                  0                       # Class of committed instruction
system.cpu04.op_class_0::SimdShiftAcc               0                       # Class of committed instruction
system.cpu04.op_class_0::SimdDiv                    0                       # Class of committed instruction
system.cpu04.op_class_0::SimdSqrt                   0                       # Class of committed instruction
system.cpu04.op_class_0::SimdFloatAdd               0                       # Class of committed instruction
system.cpu04.op_class_0::SimdFloatAlu               0                       # Class of committed instruction
system.cpu04.op_class_0::SimdFloatCmp               0                       # Class of committed instruction
system.cpu04.op_class_0::SimdFloatCvt               0                       # Class of committed instruction
system.cpu04.op_class_0::SimdFloatDiv               0                       # Class of committed instruction
system.cpu04.op_class_0::SimdFloatMisc              0                       # Class of committed instruction
system.cpu04.op_class_0::SimdFloatMult              0                       # Class of committed instruction
system.cpu04.op_class_0::SimdFloatMultAcc            0                       # Class of committed instruction
system.cpu04.op_class_0::SimdFloatSqrt              0                       # Class of committed instruction
system.cpu04.op_class_0::SimdReduceAdd              0                       # Class of committed instruction
system.cpu04.op_class_0::SimdReduceAlu              0                       # Class of committed instruction
system.cpu04.op_class_0::SimdReduceCmp              0                       # Class of committed instruction
system.cpu04.op_class_0::SimdFloatReduceAdd            0                       # Class of committed instruction
system.cpu04.op_class_0::SimdFloatReduceCmp            0                       # Class of committed instruction
system.cpu04.op_class_0::SimdAes                    0                       # Class of committed instruction
system.cpu04.op_class_0::SimdAesMix                 0                       # Class of committed instruction
system.cpu04.op_class_0::SimdSha1Hash               0                       # Class of committed instruction
system.cpu04.op_class_0::SimdSha1Hash2              0                       # Class of committed instruction
system.cpu04.op_class_0::SimdSha256Hash             0                       # Class of committed instruction
system.cpu04.op_class_0::SimdSha256Hash2            0                       # Class of committed instruction
system.cpu04.op_class_0::SimdShaSigma2              0                       # Class of committed instruction
system.cpu04.op_class_0::SimdShaSigma3              0                       # Class of committed instruction
system.cpu04.op_class_0::SimdPredAlu                0                       # Class of committed instruction
system.cpu04.op_class_0::MemRead                    0                       # Class of committed instruction
system.cpu04.op_class_0::MemWrite                   0                       # Class of committed instruction
system.cpu04.op_class_0::FloatMemRead               0                       # Class of committed instruction
system.cpu04.op_class_0::FloatMemWrite              0                       # Class of committed instruction
system.cpu04.op_class_0::IprAccess                  0                       # Class of committed instruction
system.cpu04.op_class_0::InstPrefetch               0                       # Class of committed instruction
system.cpu04.op_class_0::total                      0                       # Class of committed instruction
system.cpu04.tickCycles                             2                       # Number of cycles that the object actually ticked
system.cpu05.committedInsts                         0                       # Number of instructions committed
system.cpu05.committedOps                           0                       # Number of ops (including micro ops) committed
system.cpu05.cpi                                  inf                       # CPI: cycles per instruction
system.cpu05.discardedOps                           0                       # Number of ops (including micro ops) which were discarded before commit
system.cpu05.idleCycles                             0                       # Total number of cycles that the object has spent stopped
system.cpu05.ipc                             0.000000                       # IPC: instructions per cycle
system.cpu05.numCycles                              2                       # number of cpu cycles simulated
system.cpu05.numFetchSuspends                       0                       # Number of times Execute suspended instruction fetching
system.cpu05.numWorkItemsCompleted                  0                       # number of work items this cpu completed
system.cpu05.numWorkItemsStarted                    0                       # number of work items this cpu started
system.cpu05.op_class_0::No_OpClass                 0                       # Class of committed instruction
system.cpu05.op_class_0::IntAlu                     0                       # Class of committed instruction
system.cpu05.op_class_0::IntMult                    0                       # Class of committed instruction
system.cpu05.op_class_0::IntDiv                     0                       # Class of committed instruction
system.cpu05.op_class_0::FloatAdd                   0                       # Class of committed instruction
system.cpu05.op_class_0::FloatCmp                   0                       # Class of committed instruction
system.cpu05.op_class_0::FloatCvt                   0                       # Class of committed instruction
system.cpu05.op_class_0::FloatMult                  0                       # Class of committed instruction
system.cpu05.op_class_0::FloatMultAcc               0                       # Class of committed instruction
system.cpu05.op_class_0::FloatDiv                   0                       # Class of committed instruction
system.cpu05.op_class_0::FloatMisc                  0                       # Class of committed instruction
system.cpu05.op_class_0::FloatSqrt                  0                       # Class of committed instruction
system.cpu05.op_class_0::SimdAdd                    0                       # Class of committed instruction
system.cpu05.op_class_0::SimdAddAcc                 0                       # Class of committed instruction
system.cpu05.op_class_0::SimdAlu                    0                       # Class of committed instruction
system.cpu05.op_class_0::SimdCmp                    0                       # Class of committed instruction
system.cpu05.op_class_0::SimdCvt                    0                       # Class of committed instruction
system.cpu05.op_class_0::SimdMisc                   0                       # Class of committed instruction
system.cpu05.op_class_0::SimdMult                   0                       # Class of committed instruction
system.cpu05.op_class_0::SimdMultAcc                0                       # Class of committed instruction
system.cpu05.op_class_0::SimdShift                  0                       # Class of committed instruction
system.cpu05.op_class_0::SimdShiftAcc               0                       # Class of committed instruction
system.cpu05.op_class_0::SimdDiv                    0                       # Class of committed instruction
system.cpu05.op_class_0::SimdSqrt                   0                       # Class of committed instruction
system.cpu05.op_class_0::SimdFloatAdd               0                       # Class of committed instruction
system.cpu05.op_class_0::SimdFloatAlu               0                       # Class of committed instruction
system.cpu05.op_class_0::SimdFloatCmp               0                       # Class of committed instruction
system.cpu05.op_class_0::SimdFloatCvt               0                       # Class of committed instruction
system.cpu05.op_class_0::SimdFloatDiv               0                       # Class of committed instruction
system.cpu05.op_class_0::SimdFloatMisc              0                       # Class of committed instruction
system.cpu05.op_class_0::SimdFloatMult              0                       # Class of committed instruction
system.cpu05.op_class_0::SimdFloatMultAcc            0                       # Class of committed instruction
system.cpu05.op_class_0::SimdFloatSqrt              0                       # Class of committed instruction
system.cpu05.op_class_0::SimdReduceAdd              0                       # Class of committed instruction
system.cpu05.op_class_0::SimdReduceAlu              0                       # Class of committed instruction
system.cpu05.op_class_0::SimdReduceCmp              0                       # Class of committed instruction
system.cpu05.op_class_0::SimdFloatReduceAdd            0                       # Class of committed instruction
system.cpu05.op_class_0::SimdFloatReduceCmp            0                       # Class of committed instruction
system.cpu05.op_class_0::SimdAes                    0                       # Class of committed instruction
system.cpu05.op_class_0::SimdAesMix                 0                       # Class of committed instruction
system.cpu05.op_class_0::SimdSha1Hash               0                       # Class of committed instruction
system.cpu05.op_class_0::SimdSha1Hash2              0                       # Class of committed instruction
system.cpu05.op_class_0::SimdSha256Hash             0                       # Class of committed instruction
system.cpu05.op_class_0::SimdSha256Hash2            0                       # Class of committed instruction
system.cpu05.op_class_0::SimdShaSigma2              0                       # Class of committed instruction
system.cpu05.op_class_0::SimdShaSigma3              0                       # Class of committed instruction
system.cpu05.op_class_0::SimdPredAlu                0                       # Class of committed instruction
system.cpu05.op_class_0::MemRead                    0                       # Class of committed instruction
system.cpu05.op_class_0::MemWrite                   0                       # Class of committed instruction
system.cpu05.op_class_0::FloatMemRead               0                       # Class of committed instruction
system.cpu05.op_class_0::FloatMemWrite              0                       # Class of committed instruction
system.cpu05.op_class_0::IprAccess                  0                       # Class of committed instruction
system.cpu05.op_class_0::InstPrefetch               0                       # Class of committed instruction
system.cpu05.op_class_0::total                      0                       # Class of committed instruction
system.cpu05.tickCycles                             2                       # Number of cycles that the object actually ticked
system.cpu06.committedInsts                         0                       # Number of instructions committed
system.cpu06.committedOps                           0                       # Number of ops (including micro ops) committed
system.cpu06.cpi                                  inf                       # CPI: cycles per instruction
system.cpu06.discardedOps                           0                       # Number of ops (including micro ops) which were discarded before commit
system.cpu06.idleCycles                             0                       # Total number of cycles that the object has spent stopped
system.cpu06.ipc                             0.000000                       # IPC: instructions per cycle
system.cpu06.numCycles                              2                       # number of cpu cycles simulated
system.cpu06.numFetchSuspends                       0                       # Number of times Execute suspended instruction fetching
system.cpu06.numWorkItemsCompleted                  0                       # number of work items this cpu completed
system.cpu06.numWorkItemsStarted                    0                       # number of work items this cpu started
system.cpu06.op_class_0::No_OpClass                 0                       # Class of committed instruction
system.cpu06.op_class_0::IntAlu                     0                       # Class of committed instruction
system.cpu06.op_class_0::IntMult                    0                       # Class of committed instruction
system.cpu06.op_class_0::IntDiv                     0                       # Class of committed instruction
system.cpu06.op_class_0::FloatAdd                   0                       # Class of committed instruction
system.cpu06.op_class_0::FloatCmp                   0                       # Class of committed instruction
system.cpu06.op_class_0::FloatCvt                   0                       # Class of committed instruction
system.cpu06.op_class_0::FloatMult                  0                       # Class of committed instruction
system.cpu06.op_class_0::FloatMultAcc               0                       # Class of committed instruction
system.cpu06.op_class_0::FloatDiv                   0                       # Class of committed instruction
system.cpu06.op_class_0::FloatMisc                  0                       # Class of committed instruction
system.cpu06.op_class_0::FloatSqrt                  0                       # Class of committed instruction
system.cpu06.op_class_0::SimdAdd                    0                       # Class of committed instruction
system.cpu06.op_class_0::SimdAddAcc                 0                       # Class of committed instruction
system.cpu06.op_class_0::SimdAlu                    0                       # Class of committed instruction
system.cpu06.op_class_0::SimdCmp                    0                       # Class of committed instruction
system.cpu06.op_class_0::SimdCvt                    0                       # Class of committed instruction
system.cpu06.op_class_0::SimdMisc                   0                       # Class of committed instruction
system.cpu06.op_class_0::SimdMult                   0                       # Class of committed instruction
system.cpu06.op_class_0::SimdMultAcc                0                       # Class of committed instruction
system.cpu06.op_class_0::SimdShift                  0                       # Class of committed instruction
system.cpu06.op_class_0::SimdShiftAcc               0                       # Class of committed instruction
system.cpu06.op_class_0::SimdDiv                    0                       # Class of committed instruction
system.cpu06.op_class_0::SimdSqrt                   0                       # Class of committed instruction
system.cpu06.op_class_0::SimdFloatAdd               0                       # Class of committed instruction
system.cpu06.op_class_0::SimdFloatAlu               0                       # Class of committed instruction
system.cpu06.op_class_0::SimdFloatCmp               0                       # Class of committed instruction
system.cpu06.op_class_0::SimdFloatCvt               0                       # Class of committed instruction
system.cpu06.op_class_0::SimdFloatDiv               0                       # Class of committed instruction
system.cpu06.op_class_0::SimdFloatMisc              0                       # Class of committed instruction
system.cpu06.op_class_0::SimdFloatMult              0                       # Class of committed instruction
system.cpu06.op_class_0::SimdFloatMultAcc            0                       # Class of committed instruction
system.cpu06.op_class_0::SimdFloatSqrt              0                       # Class of committed instruction
system.cpu06.op_class_0::SimdReduceAdd              0                       # Class of committed instruction
system.cpu06.op_class_0::SimdReduceAlu              0                       # Class of committed instruction
system.cpu06.op_class_0::SimdReduceCmp              0                       # Class of committed instruction
system.cpu06.op_class_0::SimdFloatReduceAdd            0                       # Class of committed instruction
system.cpu06.op_class_0::SimdFloatReduceCmp            0                       # Class of committed instruction
system.cpu06.op_class_0::SimdAes                    0                       # Class of committed instruction
system.cpu06.op_class_0::SimdAesMix                 0                       # Class of committed instruction
system.cpu06.op_class_0::SimdSha1Hash               0                       # Class of committed instruction
system.cpu06.op_class_0::SimdSha1Hash2              0                       # Class of committed instruction
system.cpu06.op_class_0::SimdSha256Hash             0                       # Class of committed instruction
system.cpu06.op_class_0::SimdSha256Hash2            0                       # Class of committed instruction
system.cpu06.op_class_0::SimdShaSigma2              0                       # Class of committed instruction
system.cpu06.op_class_0::SimdShaSigma3              0                       # Class of committed instruction
system.cpu06.op_class_0::SimdPredAlu                0                       # Class of committed instruction
system.cpu06.op_class_0::MemRead                    0                       # Class of committed instruction
system.cpu06.op_class_0::MemWrite                   0                       # Class of committed instruction
system.cpu06.op_class_0::FloatMemRead               0                       # Class of committed instruction
system.cpu06.op_class_0::FloatMemWrite              0                       # Class of committed instruction
system.cpu06.op_class_0::IprAccess                  0                       # Class of committed instruction
system.cpu06.op_class_0::InstPrefetch               0                       # Class of committed instruction
system.cpu06.op_class_0::total                      0                       # Class of committed instruction
system.cpu06.tickCycles                             2                       # Number of cycles that the object actually ticked
system.cpu07.committedInsts                         0                       # Number of instructions committed
system.cpu07.committedOps                           0                       # Number of ops (including micro ops) committed
system.cpu07.cpi                                  inf                       # CPI: cycles per instruction
system.cpu07.discardedOps                           0                       # Number of ops (including micro ops) which were discarded before commit
system.cpu07.idleCycles                             0                       # Total number of cycles that the object has spent stopped
system.cpu07.ipc                             0.000000                       # IPC: instructions per cycle
system.cpu07.numCycles                              2                       # number of cpu cycles simulated
system.cpu07.numFetchSuspends                       0                       # Number of times Execute suspended instruction fetching
system.cpu07.numWorkItemsCompleted                  0                       # number of work items this cpu completed
system.cpu07.numWorkItemsStarted                    0                       # number of work items this cpu started
system.cpu07.op_class_0::No_OpClass                 0                       # Class of committed instruction
system.cpu07.op_class_0::IntAlu                     0                       # Class of committed instruction
system.cpu07.op_class_0::IntMult                    0                       # Class of committed instruction
system.cpu07.op_class_0::IntDiv                     0                       # Class of committed instruction
system.cpu07.op_class_0::FloatAdd                   0                       # Class of committed instruction
system.cpu07.op_class_0::FloatCmp                   0                       # Class of committed instruction
system.cpu07.op_class_0::FloatCvt                   0                       # Class of committed instruction
system.cpu07.op_class_0::FloatMult                  0                       # Class of committed instruction
system.cpu07.op_class_0::FloatMultAcc               0                       # Class of committed instruction
system.cpu07.op_class_0::FloatDiv                   0                       # Class of committed instruction
system.cpu07.op_class_0::FloatMisc                  0                       # Class of committed instruction
system.cpu07.op_class_0::FloatSqrt                  0                       # Class of committed instruction
system.cpu07.op_class_0::SimdAdd                    0                       # Class of committed instruction
system.cpu07.op_class_0::SimdAddAcc                 0                       # Class of committed instruction
system.cpu07.op_class_0::SimdAlu                    0                       # Class of committed instruction
system.cpu07.op_class_0::SimdCmp                    0                       # Class of committed instruction
system.cpu07.op_class_0::SimdCvt                    0                       # Class of committed instruction
system.cpu07.op_class_0::SimdMisc                   0                       # Class of committed instruction
system.cpu07.op_class_0::SimdMult                   0                       # Class of committed instruction
system.cpu07.op_class_0::SimdMultAcc                0                       # Class of committed instruction
system.cpu07.op_class_0::SimdShift                  0                       # Class of committed instruction
system.cpu07.op_class_0::SimdShiftAcc               0                       # Class of committed instruction
system.cpu07.op_class_0::SimdDiv                    0                       # Class of committed instruction
system.cpu07.op_class_0::SimdSqrt                   0                       # Class of committed instruction
system.cpu07.op_class_0::SimdFloatAdd               0                       # Class of committed instruction
system.cpu07.op_class_0::SimdFloatAlu               0                       # Class of committed instruction
system.cpu07.op_class_0::SimdFloatCmp               0                       # Class of committed instruction
system.cpu07.op_class_0::SimdFloatCvt               0                       # Class of committed instruction
system.cpu07.op_class_0::SimdFloatDiv               0                       # Class of committed instruction
system.cpu07.op_class_0::SimdFloatMisc              0                       # Class of committed instruction
system.cpu07.op_class_0::SimdFloatMult              0                       # Class of committed instruction
system.cpu07.op_class_0::SimdFloatMultAcc            0                       # Class of committed instruction
system.cpu07.op_class_0::SimdFloatSqrt              0                       # Class of committed instruction
system.cpu07.op_class_0::SimdReduceAdd              0                       # Class of committed instruction
system.cpu07.op_class_0::SimdReduceAlu              0                       # Class of committed instruction
system.cpu07.op_class_0::SimdReduceCmp              0                       # Class of committed instruction
system.cpu07.op_class_0::SimdFloatReduceAdd            0                       # Class of committed instruction
system.cpu07.op_class_0::SimdFloatReduceCmp            0                       # Class of committed instruction
system.cpu07.op_class_0::SimdAes                    0                       # Class of committed instruction
system.cpu07.op_class_0::SimdAesMix                 0                       # Class of committed instruction
system.cpu07.op_class_0::SimdSha1Hash               0                       # Class of committed instruction
system.cpu07.op_class_0::SimdSha1Hash2              0                       # Class of committed instruction
system.cpu07.op_class_0::SimdSha256Hash             0                       # Class of committed instruction
system.cpu07.op_class_0::SimdSha256Hash2            0                       # Class of committed instruction
system.cpu07.op_class_0::SimdShaSigma2              0                       # Class of committed instruction
system.cpu07.op_class_0::SimdShaSigma3              0                       # Class of committed instruction
system.cpu07.op_class_0::SimdPredAlu                0                       # Class of committed instruction
system.cpu07.op_class_0::MemRead                    0                       # Class of committed instruction
system.cpu07.op_class_0::MemWrite                   0                       # Class of committed instruction
system.cpu07.op_class_0::FloatMemRead               0                       # Class of committed instruction
system.cpu07.op_class_0::FloatMemWrite              0                       # Class of committed instruction
system.cpu07.op_class_0::IprAccess                  0                       # Class of committed instruction
system.cpu07.op_class_0::InstPrefetch               0                       # Class of committed instruction
system.cpu07.op_class_0::total                      0                       # Class of committed instruction
system.cpu07.tickCycles                             2                       # Number of cycles that the object actually ticked
system.cpu08.committedInsts                         0                       # Number of instructions committed
system.cpu08.committedOps                           0                       # Number of ops (including micro ops) committed
system.cpu08.cpi                                  inf                       # CPI: cycles per instruction
system.cpu08.discardedOps                           0                       # Number of ops (including micro ops) which were discarded before commit
system.cpu08.idleCycles                             0                       # Total number of cycles that the object has spent stopped
system.cpu08.ipc                             0.000000                       # IPC: instructions per cycle
system.cpu08.numCycles                              2                       # number of cpu cycles simulated
system.cpu08.numFetchSuspends                       0                       # Number of times Execute suspended instruction fetching
system.cpu08.numWorkItemsCompleted                  0                       # number of work items this cpu completed
system.cpu08.numWorkItemsStarted                    0                       # number of work items this cpu started
system.cpu08.op_class_0::No_OpClass                 0                       # Class of committed instruction
system.cpu08.op_class_0::IntAlu                     0                       # Class of committed instruction
system.cpu08.op_class_0::IntMult                    0                       # Class of committed instruction
system.cpu08.op_class_0::IntDiv                     0                       # Class of committed instruction
system.cpu08.op_class_0::FloatAdd                   0                       # Class of committed instruction
system.cpu08.op_class_0::FloatCmp                   0                       # Class of committed instruction
system.cpu08.op_class_0::FloatCvt                   0                       # Class of committed instruction
system.cpu08.op_class_0::FloatMult                  0                       # Class of committed instruction
system.cpu08.op_class_0::FloatMultAcc               0                       # Class of committed instruction
system.cpu08.op_class_0::FloatDiv                   0                       # Class of committed instruction
system.cpu08.op_class_0::FloatMisc                  0                       # Class of committed instruction
system.cpu08.op_class_0::FloatSqrt                  0                       # Class of committed instruction
system.cpu08.op_class_0::SimdAdd                    0                       # Class of committed instruction
system.cpu08.op_class_0::SimdAddAcc                 0                       # Class of committed instruction
system.cpu08.op_class_0::SimdAlu                    0                       # Class of committed instruction
system.cpu08.op_class_0::SimdCmp                    0                       # Class of committed instruction
system.cpu08.op_class_0::SimdCvt                    0                       # Class of committed instruction
system.cpu08.op_class_0::SimdMisc                   0                       # Class of committed instruction
system.cpu08.op_class_0::SimdMult                   0                       # Class of committed instruction
system.cpu08.op_class_0::SimdMultAcc                0                       # Class of committed instruction
system.cpu08.op_class_0::SimdShift                  0                       # Class of committed instruction
system.cpu08.op_class_0::SimdShiftAcc               0                       # Class of committed instruction
system.cpu08.op_class_0::SimdDiv                    0                       # Class of committed instruction
system.cpu08.op_class_0::SimdSqrt                   0                       # Class of committed instruction
system.cpu08.op_class_0::SimdFloatAdd               0                       # Class of committed instruction
system.cpu08.op_class_0::SimdFloatAlu               0                       # Class of committed instruction
system.cpu08.op_class_0::SimdFloatCmp               0                       # Class of committed instruction
system.cpu08.op_class_0::SimdFloatCvt               0                       # Class of committed instruction
system.cpu08.op_class_0::SimdFloatDiv               0                       # Class of committed instruction
system.cpu08.op_class_0::SimdFloatMisc              0                       # Class of committed instruction
system.cpu08.op_class_0::SimdFloatMult              0                       # Class of committed instruction
system.cpu08.op_class_0::SimdFloatMultAcc            0                       # Class of committed instruction
system.cpu08.op_class_0::SimdFloatSqrt              0                       # Class of committed instruction
system.cpu08.op_class_0::SimdReduceAdd              0                       # Class of committed instruction
system.cpu08.op_class_0::SimdReduceAlu              0                       # Class of committed instruction
system.cpu08.op_class_0::SimdReduceCmp              0                       # Class of committed instruction
system.cpu08.op_class_0::SimdFloatReduceAdd            0                       # Class of committed instruction
system.cpu08.op_class_0::SimdFloatReduceCmp            0                       # Class of committed instruction
system.cpu08.op_class_0::SimdAes                    0                       # Class of committed instruction
system.cpu08.op_class_0::SimdAesMix                 0                       # Class of committed instruction
system.cpu08.op_class_0::SimdSha1Hash               0                       # Class of committed instruction
system.cpu08.op_class_0::SimdSha1Hash2              0                       # Class of committed instruction
system.cpu08.op_class_0::SimdSha256Hash             0                       # Class of committed instruction
system.cpu08.op_class_0::SimdSha256Hash2            0                       # Class of committed instruction
system.cpu08.op_class_0::SimdShaSigma2              0                       # Class of committed instruction
system.cpu08.op_class_0::SimdShaSigma3              0                       # Class of committed instruction
system.cpu08.op_class_0::SimdPredAlu                0                       # Class of committed instruction
system.cpu08.op_class_0::MemRead                    0                       # Class of committed instruction
system.cpu08.op_class_0::MemWrite                   0                       # Class of committed instruction
system.cpu08.op_class_0::FloatMemRead               0                       # Class of committed instruction
system.cpu08.op_class_0::FloatMemWrite              0                       # Class of committed instruction
system.cpu08.op_class_0::IprAccess                  0                       # Class of committed instruction
system.cpu08.op_class_0::InstPrefetch               0                       # Class of committed instruction
system.cpu08.op_class_0::total                      0                       # Class of committed instruction
system.cpu08.tickCycles                             2                       # Number of cycles that the object actually ticked
system.cpu09.committedInsts                         0                       # Number of instructions committed
system.cpu09.committedOps                           0                       # Number of ops (including micro ops) committed
system.cpu09.cpi                                  inf                       # CPI: cycles per instruction
system.cpu09.discardedOps                           0                       # Number of ops (including micro ops) which were discarded before commit
system.cpu09.idleCycles                             0                       # Total number of cycles that the object has spent stopped
system.cpu09.ipc                             0.000000                       # IPC: instructions per cycle
system.cpu09.numCycles                              2                       # number of cpu cycles simulated
system.cpu09.numFetchSuspends                       0                       # Number of times Execute suspended instruction fetching
system.cpu09.numWorkItemsCompleted                  0                       # number of work items this cpu completed
system.cpu09.numWorkItemsStarted                    0                       # number of work items this cpu started
system.cpu09.op_class_0::No_OpClass                 0                       # Class of committed instruction
system.cpu09.op_class_0::IntAlu                     0                       # Class of committed instruction
system.cpu09.op_class_0::IntMult                    0                       # Class of committed instruction
system.cpu09.op_class_0::IntDiv                     0                       # Class of committed instruction
system.cpu09.op_class_0::FloatAdd                   0                       # Class of committed instruction
system.cpu09.op_class_0::FloatCmp                   0                       # Class of committed instruction
system.cpu09.op_class_0::FloatCvt                   0                       # Class of committed instruction
system.cpu09.op_class_0::FloatMult                  0                       # Class of committed instruction
system.cpu09.op_class_0::FloatMultAcc               0                       # Class of committed instruction
system.cpu09.op_class_0::FloatDiv                   0                       # Class of committed instruction
system.cpu09.op_class_0::FloatMisc                  0                       # Class of committed instruction
system.cpu09.op_class_0::FloatSqrt                  0                       # Class of committed instruction
system.cpu09.op_class_0::SimdAdd                    0                       # Class of committed instruction
system.cpu09.op_class_0::SimdAddAcc                 0                       # Class of committed instruction
system.cpu09.op_class_0::SimdAlu                    0                       # Class of committed instruction
system.cpu09.op_class_0::SimdCmp                    0                       # Class of committed instruction
system.cpu09.op_class_0::SimdCvt                    0                       # Class of committed instruction
system.cpu09.op_class_0::SimdMisc                   0                       # Class of committed instruction
system.cpu09.op_class_0::SimdMult                   0                       # Class of committed instruction
system.cpu09.op_class_0::SimdMultAcc                0                       # Class of committed instruction
system.cpu09.op_class_0::SimdShift                  0                       # Class of committed instruction
system.cpu09.op_class_0::SimdShiftAcc               0                       # Class of committed instruction
system.cpu09.op_class_0::SimdDiv                    0                       # Class of committed instruction
system.cpu09.op_class_0::SimdSqrt                   0                       # Class of committed instruction
system.cpu09.op_class_0::SimdFloatAdd               0                       # Class of committed instruction
system.cpu09.op_class_0::SimdFloatAlu               0                       # Class of committed instruction
system.cpu09.op_class_0::SimdFloatCmp               0                       # Class of committed instruction
system.cpu09.op_class_0::SimdFloatCvt               0                       # Class of committed instruction
system.cpu09.op_class_0::SimdFloatDiv               0                       # Class of committed instruction
system.cpu09.op_class_0::SimdFloatMisc              0                       # Class of committed instruction
system.cpu09.op_class_0::SimdFloatMult              0                       # Class of committed instruction
system.cpu09.op_class_0::SimdFloatMultAcc            0                       # Class of committed instruction
system.cpu09.op_class_0::SimdFloatSqrt              0                       # Class of committed instruction
system.cpu09.op_class_0::SimdReduceAdd              0                       # Class of committed instruction
system.cpu09.op_class_0::SimdReduceAlu              0                       # Class of committed instruction
system.cpu09.op_class_0::SimdReduceCmp              0                       # Class of committed instruction
system.cpu09.op_class_0::SimdFloatReduceAdd            0                       # Class of committed instruction
system.cpu09.op_class_0::SimdFloatReduceCmp            0                       # Class of committed instruction
system.cpu09.op_class_0::SimdAes                    0                       # Class of committed instruction
system.cpu09.op_class_0::SimdAesMix                 0                       # Class of committed instruction
system.cpu09.op_class_0::SimdSha1Hash               0                       # Class of committed instruction
system.cpu09.op_class_0::SimdSha1Hash2              0                       # Class of committed instruction
system.cpu09.op_class_0::SimdSha256Hash             0                       # Class of committed instruction
system.cpu09.op_class_0::SimdSha256Hash2            0                       # Class of committed instruction
system.cpu09.op_class_0::SimdShaSigma2              0                       # Class of committed instruction
system.cpu09.op_class_0::SimdShaSigma3              0                       # Class of committed instruction
system.cpu09.op_class_0::SimdPredAlu                0                       # Class of committed instruction
system.cpu09.op_class_0::MemRead                    0                       # Class of committed instruction
system.cpu09.op_class_0::MemWrite                   0                       # Class of committed instruction
system.cpu09.op_class_0::FloatMemRead               0                       # Class of committed instruction
system.cpu09.op_class_0::FloatMemWrite              0                       # Class of committed instruction
system.cpu09.op_class_0::IprAccess                  0                       # Class of committed instruction
system.cpu09.op_class_0::InstPrefetch               0                       # Class of committed instruction
system.cpu09.op_class_0::total                      0                       # Class of committed instruction
system.cpu09.tickCycles                             2                       # Number of cycles that the object actually ticked
system.cpu10.committedInsts                         0                       # Number of instructions committed
system.cpu10.committedOps                           0                       # Number of ops (including micro ops) committed
system.cpu10.cpi                                  inf                       # CPI: cycles per instruction
system.cpu10.discardedOps                           0                       # Number of ops (including micro ops) which were discarded before commit
system.cpu10.idleCycles                             0                       # Total number of cycles that the object has spent stopped
system.cpu10.ipc                             0.000000                       # IPC: instructions per cycle
system.cpu10.numCycles                              2                       # number of cpu cycles simulated
system.cpu10.numFetchSuspends                       0                       # Number of times Execute suspended instruction fetching
system.cpu10.numWorkItemsCompleted                  0                       # number of work items this cpu completed
system.cpu10.numWorkItemsStarted                    0                       # number of work items this cpu started
system.cpu10.op_class_0::No_OpClass                 0                       # Class of committed instruction
system.cpu10.op_class_0::IntAlu                     0                       # Class of committed instruction
system.cpu10.op_class_0::IntMult                    0                       # Class of committed instruction
system.cpu10.op_class_0::IntDiv                     0                       # Class of committed instruction
system.cpu10.op_class_0::FloatAdd                   0                       # Class of committed instruction
system.cpu10.op_class_0::FloatCmp                   0                       # Class of committed instruction
system.cpu10.op_class_0::FloatCvt                   0                       # Class of committed instruction
system.cpu10.op_class_0::FloatMult                  0                       # Class of committed instruction
system.cpu10.op_class_0::FloatMultAcc               0                       # Class of committed instruction
system.cpu10.op_class_0::FloatDiv                   0                       # Class of committed instruction
system.cpu10.op_class_0::FloatMisc                  0                       # Class of committed instruction
system.cpu10.op_class_0::FloatSqrt                  0                       # Class of committed instruction
system.cpu10.op_class_0::SimdAdd                    0                       # Class of committed instruction
system.cpu10.op_class_0::SimdAddAcc                 0                       # Class of committed instruction
system.cpu10.op_class_0::SimdAlu                    0                       # Class of committed instruction
system.cpu10.op_class_0::SimdCmp                    0                       # Class of committed instruction
system.cpu10.op_class_0::SimdCvt                    0                       # Class of committed instruction
system.cpu10.op_class_0::SimdMisc                   0                       # Class of committed instruction
system.cpu10.op_class_0::SimdMult                   0                       # Class of committed instruction
system.cpu10.op_class_0::SimdMultAcc                0                       # Class of committed instruction
system.cpu10.op_class_0::SimdShift                  0                       # Class of committed instruction
system.cpu10.op_class_0::SimdShiftAcc               0                       # Class of committed instruction
system.cpu10.op_class_0::SimdDiv                    0                       # Class of committed instruction
system.cpu10.op_class_0::SimdSqrt                   0                       # Class of committed instruction
system.cpu10.op_class_0::SimdFloatAdd               0                       # Class of committed instruction
system.cpu10.op_class_0::SimdFloatAlu               0                       # Class of committed instruction
system.cpu10.op_class_0::SimdFloatCmp               0                       # Class of committed instruction
system.cpu10.op_class_0::SimdFloatCvt               0                       # Class of committed instruction
system.cpu10.op_class_0::SimdFloatDiv               0                       # Class of committed instruction
system.cpu10.op_class_0::SimdFloatMisc              0                       # Class of committed instruction
system.cpu10.op_class_0::SimdFloatMult              0                       # Class of committed instruction
system.cpu10.op_class_0::SimdFloatMultAcc            0                       # Class of committed instruction
system.cpu10.op_class_0::SimdFloatSqrt              0                       # Class of committed instruction
system.cpu10.op_class_0::SimdReduceAdd              0                       # Class of committed instruction
system.cpu10.op_class_0::SimdReduceAlu              0                       # Class of committed instruction
system.cpu10.op_class_0::SimdReduceCmp              0                       # Class of committed instruction
system.cpu10.op_class_0::SimdFloatReduceAdd            0                       # Class of committed instruction
system.cpu10.op_class_0::SimdFloatReduceCmp            0                       # Class of committed instruction
system.cpu10.op_class_0::SimdAes                    0                       # Class of committed instruction
system.cpu10.op_class_0::SimdAesMix                 0                       # Class of committed instruction
system.cpu10.op_class_0::SimdSha1Hash               0                       # Class of committed instruction
system.cpu10.op_class_0::SimdSha1Hash2              0                       # Class of committed instruction
system.cpu10.op_class_0::SimdSha256Hash             0                       # Class of committed instruction
system.cpu10.op_class_0::SimdSha256Hash2            0                       # Class of committed instruction
system.cpu10.op_class_0::SimdShaSigma2              0                       # Class of committed instruction
system.cpu10.op_class_0::SimdShaSigma3              0                       # Class of committed instruction
[...]
system.mem_ctrls.dram.num_writes::total             1                       # Number of write requests responded to by this memory
system.mem_ctrls.dram.bw_read::.cpu00.inst    752827043                       # Total read bandwidth from this memory (bytes/s)
system.mem_ctrls.dram.bw_read::.cpu00.data    312384417                       # Total read bandwidth from this memory (bytes/s)
system.mem_ctrls.dram.bw_read::total       1065211460                       # Total read bandwidth from this memory (bytes/s)
system.mem_ctrls.dram.bw_inst_read::.cpu00.inst    752827043                       # Instruction read bandwidth from this memory (bytes/s)
system.mem_ctrls.dram.bw_inst_read::total    752827043                       # Instruction read bandwidth from this memory (bytes/s)
system.mem_ctrls.dram.bw_write::.writebacks      1940276                       # Write bandwidth from this memory (bytes/s)
system.mem_ctrls.dram.bw_write::total         1940276                       # Write bandwidth from this memory (bytes/s)
system.mem_ctrls.dram.bw_total::.writebacks      1940276                       # Total bandwidth to/from this memory (bytes/s)
system.mem_ctrls.dram.bw_total::.cpu00.inst    752827043                       # Total bandwidth to/from this memory (bytes/s)
system.mem_ctrls.dram.bw_total::.cpu00.data    312384417                       # Total bandwidth to/from this memory (bytes/s)
system.mem_ctrls.dram.bw_total::total      1067151736                       # Total bandwidth to/from this memory (bytes/s)
system.mem_ctrls.dram.readBursts                  524                       # Number of DRAM read bursts
system.mem_ctrls.dram.writeBursts                 130                       # Number of DRAM write bursts
system.mem_ctrls.dram.perBankRdBursts::0           46                       # Per bank write bursts
system.mem_ctrls.dram.perBankRdBursts::1            2                       # Per bank write bursts
system.mem_ctrls.dram.perBankRdBursts::2           33                       # Per bank write bursts
system.mem_ctrls.dram.perBankRdBursts::3           33                       # Per bank write bursts
system.mem_ctrls.dram.perBankRdBursts::4           52                       # Per bank write bursts
system.mem_ctrls.dram.perBankRdBursts::5           44                       # Per bank write bursts
system.mem_ctrls.dram.perBankRdBursts::6           64                       # Per bank write bursts
system.mem_ctrls.dram.perBankRdBursts::7           23                       # Per bank write bursts
system.mem_ctrls.dram.perBankRdBursts::8           19                       # Per bank write bursts
system.mem_ctrls.dram.perBankRdBursts::9          119                       # Per bank write bursts
system.mem_ctrls.dram.perBankRdBursts::10           30                       # Per bank write bursts
system.mem_ctrls.dram.perBankRdBursts::11           24                       # Per bank write bursts
system.mem_ctrls.dram.perBankRdBursts::12           17                       # Per bank write bursts
system.mem_ctrls.dram.perBankRdBursts::13           10                       # Per bank write bursts
system.mem_ctrls.dram.perBankRdBursts::14            8                       # Per bank write bursts
system.mem_ctrls.dram.perBankRdBursts::15            0                       # Per bank write bursts
system.mem_ctrls.dram.perBankWrBursts::0           15                       # Per bank write bursts
system.mem_ctrls.dram.perBankWrBursts::1            0                       # Per bank write bursts
system.mem_ctrls.dram.perBankWrBursts::2            6                       # Per bank write bursts
system.mem_ctrls.dram.perBankWrBursts::3           16                       # Per bank write bursts
system.mem_ctrls.dram.perBankWrBursts::4            4                       # Per bank write bursts
system.mem_ctrls.dram.perBankWrBursts::5           12                       # Per bank write bursts
system.mem_ctrls.dram.perBankWrBursts::6           18                       # Per bank write bursts
system.mem_ctrls.dram.perBankWrBursts::7           18                       # Per bank write bursts
system.mem_ctrls.dram.perBankWrBursts::8            8                       # Per bank write bursts
system.mem_ctrls.dram.perBankWrBursts::9           27                       # Per bank write bursts
system.mem_ctrls.dram.perBankWrBursts::10            0                       # Per bank write bursts
system.mem_ctrls.dram.perBankWrBursts::11            3                       # Per bank write bursts
system.mem_ctrls.dram.perBankWrBursts::12            2                       # Per bank write bursts
system.mem_ctrls.dram.perBankWrBursts::13            0                       # Per bank write bursts
system.mem_ctrls.dram.perBankWrBursts::14            1                       # Per bank write bursts
system.mem_ctrls.dram.perBankWrBursts::15            0                       # Per bank write bursts
system.mem_ctrls.dram.totQLat                 4538000                       # Total ticks spent queuing
system.mem_ctrls.dram.totBusLat               2620000                       # Total ticks spent in databus transfers
system.mem_ctrls.dram.totMemAccLat           14363000                       # Total ticks spent from burst creation until serviced by the DRAM
system.mem_ctrls.dram.avgQLat                 8660.31                       # Average queueing delay per DRAM burst
system.mem_ctrls.dram.avgBusLat               5000.00                       # Average bus latency per DRAM burst
system.mem_ctrls.dram.avgMemAccLat           27410.31                       # Average memory access latency per DRAM burst
system.mem_ctrls.dram.readRowHits                 421                       # Number of row buffer hits during reads
system.mem_ctrls.dram.writeRowHits                108                       # Number of row buffer hits during writes
system.mem_ctrls.dram.readRowHitRate            80.34                       # Row buffer hit rate for reads
system.mem_ctrls.dram.writeRowHitRate           83.08                       # Row buffer hit rate for writes
system.mem_ctrls.dram.bytesPerActivate::samples          119                       # Bytes accessed per row activation
system.mem_ctrls.dram.bytesPerActivate::mean   337.747899                       # Bytes accessed per row activation
system.mem_ctrls.dram.bytesPerActivate::gmean   215.360682                       # Bytes accessed per row activation
system.mem_ctrls.dram.bytesPerActivate::stdev   327.709106                       # Bytes accessed per row activation
system.mem_ctrls.dram.bytesPerActivate::0-127           30     25.21%     25.21% # Bytes accessed per row activation
system.mem_ctrls.dram.bytesPerActivate::128-255           33     27.73%     52.94% # Bytes accessed per row activation
system.mem_ctrls.dram.bytesPerActivate::256-383           22     18.49%     71.43% # Bytes accessed per row activation
system.mem_ctrls.dram.bytesPerActivate::384-511            7      5.88%     77.31% # Bytes accessed per row activation
system.mem_ctrls.dram.bytesPerActivate::512-639            4      3.36%     80.67% # Bytes accessed per row activation
system.mem_ctrls.dram.bytesPerActivate::640-767            3      2.52%     83.19% # Bytes accessed per row activation
system.mem_ctrls.dram.bytesPerActivate::768-895            2      1.68%     84.87% # Bytes accessed per row activation
system.mem_ctrls.dram.bytesPerActivate::896-1023            3      2.52%     87.39% # Bytes accessed per row activation
system.mem_ctrls.dram.bytesPerActivate::1024-1151           15     12.61%    100.00% # Bytes accessed per row activation
system.mem_ctrls.dram.bytesPerActivate::total          119                       # Bytes accessed per row activation
system.mem_ctrls.dram.bytesRead                 33536                       # Total number of bytes read from DRAM
system.mem_ctrls.dram.bytesWritten               8320                       # Total number of bytes written to DRAM
system.mem_ctrls.dram.avgRdBW             1016.704563                       # Average DRAM read bandwidth in MiBytes/s
system.mem_ctrls.dram.avgWrBW              252.235865                       # Average DRAM write bandwidth in MiBytes/s
system.mem_ctrls.dram.peakBW                 12800.00                       # Theoretical peak bandwidth in MiByte/s
system.mem_ctrls.dram.busUtil                    9.91                       # Data bus utilization in percentage
system.mem_ctrls.dram.busUtilRead                7.94                       # Data bus utilization in percentage for reads
system.mem_ctrls.dram.busUtilWrite               1.97                       # Data bus utilization in percentage for writes
system.mem_ctrls.dram.pageHitRate               80.89                       # Row buffer hit rate, read and write combined
system.mem_ctrls.dram.power_state.pwrStateResidencyTicks::UNDEFINED     32985000                       # Cumulative time (in ticks) in various power states
system.mem_ctrls.dram.rank0.actEnergy          435540                       # Energy for activate commands per rank (pJ)
system.mem_ctrls.dram.rank0.preEnergy          216315                       # Energy for precharge commands per rank (pJ)
system.mem_ctrls.dram.rank0.readEnergy        2120580                       # Energy for read commands per rank (pJ)
system.mem_ctrls.dram.rank0.writeEnergy        464580                       # Energy for write commands per rank (pJ)
system.mem_ctrls.dram.rank0.refreshEnergy 2458560.000000                       # Energy for refresh commands per rank (pJ)
system.mem_ctrls.dram.rank0.actBackEnergy     14748750                       # Energy for active background per rank (pJ)
system.mem_ctrls.dram.rank0.preBackEnergy       246240                       # Energy for precharge background per rank (pJ)
system.mem_ctrls.dram.rank0.actPowerDownEnergy            0                       # Energy for active power-down per rank (pJ)
system.mem_ctrls.dram.rank0.prePowerDownEnergy            0                       # Energy for precharge power-down per rank (pJ)
system.mem_ctrls.dram.rank0.selfRefreshEnergy            0                       # Energy for self refresh per rank (pJ)
system.mem_ctrls.dram.rank0.totalEnergy      20690565                       # Total energy per rank (pJ)
system.mem_ctrls.dram.rank0.averagePower   627.271942                       # Core power per rank (mW)
system.mem_ctrls.dram.rank0.totalIdleTime            0                       # Total Idle time Per DRAM Rank
system.mem_ctrls.dram.rank0.pwrStateTime::IDLE       528750                       # Time in different power states
system.mem_ctrls.dram.rank0.pwrStateTime::REF      1040000                       # Time in different power states
system.mem_ctrls.dram.rank0.pwrStateTime::SREF            0                       # Time in different power states
system.mem_ctrls.dram.rank0.pwrStateTime::PRE_PDN            0                       # Time in different power states
system.mem_ctrls.dram.rank0.pwrStateTime::ACT     31416250                       # Time in different power states
system.mem_ctrls.dram.rank0.pwrStateTime::ACT_PDN            0                       # Time in different power states
system.mem_ctrls.dram.rank1.actEnergy          456960                       # Energy for activate commands per rank (pJ)
system.mem_ctrls.dram.rank1.preEnergy          235290                       # Energy for precharge commands per rank (pJ)
system.mem_ctrls.dram.rank1.readEnergy        1620780                       # Energy for read commands per rank (pJ)
system.mem_ctrls.dram.rank1.writeEnergy        214020                       # Energy for write commands per rank (pJ)
system.mem_ctrls.dram.rank1.refreshEnergy 2458560.000000                       # Energy for refresh commands per rank (pJ)
system.mem_ctrls.dram.rank1.actBackEnergy     14923740                       # Energy for active background per rank (pJ)
system.mem_ctrls.dram.rank1.preBackEnergy        98880                       # Energy for precharge background per rank (pJ)
system.mem_ctrls.dram.rank1.actPowerDownEnergy            0                       # Energy for active power-down per rank (pJ)
system.mem_ctrls.dram.rank1.prePowerDownEnergy            0                       # Energy for precharge power-down per rank (pJ)
system.mem_ctrls.dram.rank1.selfRefreshEnergy            0                       # Energy for self refresh per rank (pJ)
system.mem_ctrls.dram.rank1.totalEnergy      20008230                       # Total energy per rank (pJ)
system.mem_ctrls.dram.rank1.averagePower   606.585721                       # Core power per rank (mW)
system.mem_ctrls.dram.rank1.totalIdleTime            0                       # Total Idle time Per DRAM Rank
system.mem_ctrls.dram.rank1.pwrStateTime::IDLE       146250                       # Time in different power states
system.mem_ctrls.dram.rank1.pwrStateTime::REF      1040000                       # Time in different power states
system.mem_ctrls.dram.rank1.pwrStateTime::SREF            0                       # Time in different power states
system.mem_ctrls.dram.rank1.pwrStateTime::PRE_PDN            0                       # Time in different power states
system.mem_ctrls.dram.rank1.pwrStateTime::ACT     31798750                       # Time in different power states
system.mem_ctrls.dram.rank1.pwrStateTime::ACT_PDN            0                       # Time in different power states
system.mem_ctrls.power_state.pwrStateResidencyTicks::UNDEFINED     32985000                       # Cumulative time (in ticks) in various power states
system.membus.trans_dist::ReadResp                486                       # Transaction distribution
system.membus.trans_dist::WritebackDirty            1                       # Transaction distribution
system.membus.trans_dist::WritebackClean          165                       # Transaction distribution
system.membus.trans_dist::CleanEvict                1                       # Transaction distribution
system.membus.trans_dist::ReadExReq                63                       # Transaction distribution
system.membus.trans_dist::ReadExResp               63                       # Transaction distribution
system.membus.trans_dist::ReadCleanReq            388                       # Transaction distribution
system.membus.trans_dist::ReadSharedReq            98                       # Transaction distribution
system.membus.pkt_count_system.cpu00.icache.mem_side_port::system.mem_ctrls.port          941                       # Packet count per connected requestor and responder (bytes)
system.membus.pkt_count_system.cpu00.dcache.mem_side_port::system.mem_ctrls.port          324                       # Packet count per connected requestor and responder (bytes)
system.membus.pkt_count::total                   1265                       # Packet count per connected requestor and responder (bytes)
system.membus.pkt_size_system.cpu00.icache.mem_side_port::system.mem_ctrls.port        35392                       # Cumulative packet size per connected requestor and responder (bytes)
system.membus.pkt_size_system.cpu00.dcache.mem_side_port::system.mem_ctrls.port        10368                       # Cumulative packet size per connected requestor and responder (bytes)
system.membus.pkt_size::total                   45760                       # Cumulative packet size per connected requestor and responder (bytes)
system.membus.snoops                                0                       # Total snoops (count)
system.membus.snoopTraffic                          0                       # Total snoop traffic (bytes)
system.membus.snoop_fanout::samples               549                       # Request fanout histogram
system.membus.snoop_fanout::mean             0.040073                       # Request fanout histogram
system.membus.snoop_fanout::stdev            0.196309                       # Request fanout histogram
system.membus.snoop_fanout::underflows              0      0.00%      0.00% # Request fanout histogram
system.membus.snoop_fanout::0                     527     95.99%     95.99% # Request fanout histogram
system.membus.snoop_fanout::1                      22      4.01%    100.00% # Request fanout histogram
system.membus.snoop_fanout::2                       0      0.00%    100.00% # Request fanout histogram
system.membus.snoop_fanout::3                       0      0.00%    100.00% # Request fanout histogram
system.membus.snoop_fanout::4                       0      0.00%    100.00% # Request fanout histogram
system.membus.snoop_fanout::5                       0      0.00%    100.00% # Request fanout histogram
system.membus.snoop_fanout::6                       0      0.00%    100.00% # Request fanout histogram
system.membus.snoop_fanout::7                       0      0.00%    100.00% # Request fanout histogram
system.membus.snoop_fanout::8                       0      0.00%    100.00% # Request fanout histogram
system.membus.snoop_fanout::9                       0      0.00%    100.00% # Request fanout histogram
system.membus.snoop_fanout::10                      0      0.00%    100.00% # Request fanout histogram
system.membus.snoop_fanout::11                      0      0.00%    100.00% # Request fanout histogram
system.membus.snoop_fanout::12                      0      0.00%    100.00% # Request fanout histogram
system.membus.snoop_fanout::13                      0      0.00%    100.00% # Request fanout histogram
system.membus.snoop_fanout::14                      0      0.00%    100.00% # Request fanout histogram
system.membus.snoop_fanout::15                      0      0.00%    100.00% # Request fanout histogram
system.membus.snoop_fanout::16                      0      0.00%    100.00% # Request fanout histogram
system.membus.snoop_fanout::17                      0      0.00%    100.00% # Request fanout histogram
system.membus.snoop_fanout::18                      0      0.00%    100.00% # Request fanout histogram
system.membus.snoop_fanout::19                      0      0.00%    100.00% # Request fanout histogram
system.membus.snoop_fanout::20                      0      0.00%    100.00% # Request fanout histogram
system.membus.snoop_fanout::21                      0      0.00%    100.00% # Request fanout histogram
system.membus.snoop_fanout::22                      0      0.00%    100.00% # Request fanout histogram
system.membus.snoop_fanout::23                      0      0.00%    100.00% # Request fanout histogram
system.membus.snoop_fanout::24                      0      0.00%    100.00% # Request fanout histogram
system.membus.snoop_fanout::overflows               0      0.00%    100.00% # Request fanout histogram
system.membus.snoop_fanout::min_value               0                       # Request fanout histogram
system.membus.snoop_fanout::max_value               1                       # Request fanout histogram
system.membus.snoop_fanout::total                 549                       # Request fanout histogram
system.membus.power_state.pwrStateResidencyTicks::UNDEFINED     32985000                       # Cumulative time (in ticks) in various power states
system.membus.reqLayer0.occupancy             1460000                       # Layer occupancy (ticks)
system.membus.reqLayer0.utilization               4.4                       # Layer utilization (%)
system.membus.respLayer1.occupancy            2052250                       # Layer occupancy (ticks)
system.membus.respLayer1.utilization              6.2                       # Layer utilization (%)
system.membus.respLayer2.occupancy             865000                       # Layer occupancy (ticks)
system.membus.respLayer2.utilization              2.6                       # Layer utilization (%)
system.voltage_domain.voltage                       1                       # Voltage in Volts

---------- End Simulation Statistics   ----------
