
---------- Begin Simulation Statistics ----------
final_tick                               118122260000                       # Number of ticks from beginning of simulation (restored from checkpoints and never reset)
host_inst_rate                                 336181                       # Simulator instruction rate (inst/s)
host_mem_usage                                8534076                       # Number of bytes of host memory used
host_op_rate                                   339888                       # Simulator op (including micro ops) rate (op/s)
host_seconds                                   297.46                       # Real time elapsed on the host
host_tick_rate                              397104774                       # Simulator tick rate (ticks/s)
sim_freq                                 1000000000000                       # Frequency of simulated ticks
sim_insts                                   100000000                       # Number of instructions simulated
sim_ops                                     101102730                       # Number of ops (including micro ops) simulated
sim_seconds                                  0.118122                       # Number of seconds simulated
sim_ticks                                118122260000                       # Number of ticks simulated
system.cpu.committedInsts                   100000000                       # Number of instructions committed
system.cpu.committedOps                     101102730                       # Number of ops (including micro ops) committed
system.cpu.cpi                               1.181223                       # CPI: cycles per instruction
system.cpu.discardedOps                        966336                       # Number of ops (including micro ops) which were discarded before commit
system.cpu.idleCycles                         2264596                       # Total number of cycles that the object has spent stopped
system.cpu.ipc                               0.846580                       # IPC: instructions per cycle
system.cpu.numCycles                        118122260                       # number of cpu cycles simulated
system.cpu.numFetchSuspends                         0                       # Number of times Execute suspended instruction fetching
system.cpu.numWorkItemsCompleted                    0                       # number of work items this cpu completed
system.cpu.numWorkItemsStarted                      0                       # number of work items this cpu started
system.cpu.op_class_0::No_OpClass                   0      0.00%      0.00% # Class of committed instruction
system.cpu.op_class_0::IntAlu                55115624     54.51%     54.51% # Class of committed instruction
system.cpu.op_class_0::IntMult                 167845      0.17%     54.68% # Class of committed instruction
system.cpu.op_class_0::IntDiv                       0      0.00%     54.68% # Class of committed instruction
system.cpu.op_class_0::FloatAdd                     0      0.00%     54.68% # Class of committed instruction
system.cpu.op_class_0::FloatCmp                     0      0.00%     54.68% # Class of committed instruction
system.cpu.op_class_0::FloatCvt                     0      0.00%     54.68% # Class of committed instruction
system.cpu.op_class_0::FloatMult                    0      0.00%     54.68% # Class of committed instruction
system.cpu.op_class_0::FloatMultAcc                 0      0.00%     54.68% # Class of committed instruction
system.cpu.op_class_0::FloatDiv                     0      0.00%     54.68% # Class of committed instruction
system.cpu.op_class_0::FloatMisc                    0      0.00%     54.68% # Class of committed instruction
system.cpu.op_class_0::FloatSqrt                    0      0.00%     54.68% # Class of committed instruction
system.cpu.op_class_0::SimdAdd                    380      0.00%     54.68% # Class of committed instruction
system.cpu.op_class_0::SimdAddAcc                   0      0.00%     54.68% # Class of committed instruction
system.cpu.op_class_0::SimdAlu                    470      0.00%     54.68% # Class of committed instruction
system.cpu.op_class_0::SimdCmp                    382      0.00%     54.68% # Class of committed instruction
system.cpu.op_class_0::SimdCvt                      0      0.00%     54.68% # Class of committed instruction
system.cpu.op_class_0::SimdMisc                    53      0.00%     54.68% # Class of committed instruction
system.cpu.op_class_0::SimdMult                     0      0.00%     54.68% # Class of committed instruction
system.cpu.op_class_0::SimdMultAcc                  0      0.00%     54.68% # Class of committed instruction
system.cpu.op_class_0::SimdShift                    0      0.00%     54.68% # Class of committed instruction
system.cpu.op_class_0::SimdShiftAcc                 0      0.00%     54.68% # Class of committed instruction
system.cpu.op_class_0::SimdDiv                      0      0.00%     54.68% # Class of committed instruction
system.cpu.op_class_0::SimdSqrt                     0      0.00%     54.68% # Class of committed instruction
system.cpu.op_class_0::SimdFloatAdd            267609      0.26%     54.95% # Class of committed instruction
system.cpu.op_class_0::SimdFloatAlu                 0      0.00%     54.95% # Class of committed instruction
system.cpu.op_class_0::SimdFloatCmp            259630      0.26%     55.20% # Class of committed instruction
system.cpu.op_class_0::SimdFloatCvt            161456      0.16%     55.36% # Class of committed instruction
system.cpu.op_class_0::SimdFloatDiv             54308      0.05%     55.42% # Class of committed instruction
system.cpu.op_class_0::SimdFloatMisc           483618      0.48%     55.90% # Class of committed instruction
system.cpu.op_class_0::SimdFloatMult            33524      0.03%     55.93% # Class of committed instruction
system.cpu.op_class_0::SimdFloatMultAcc         11115      0.01%     55.94% # Class of committed instruction
system.cpu.op_class_0::SimdFloatSqrt                0      0.00%     55.94% # Class of committed instruction
system.cpu.op_class_0::SimdReduceAdd                0      0.00%     55.94% # Class of committed instruction
system.cpu.op_class_0::SimdReduceAlu                0      0.00%     55.94% # Class of committed instruction
system.cpu.op_class_0::SimdReduceCmp                0      0.00%     55.94% # Class of committed instruction
system.cpu.op_class_0::SimdFloatReduceAdd            0      0.00%     55.94% # Class of committed instruction
system.cpu.op_class_0::SimdFloatReduceCmp            0      0.00%     55.94% # Class of committed instruction
system.cpu.op_class_0::SimdAes                      0      0.00%     55.94% # Class of committed instruction
system.cpu.op_class_0::SimdAesMix                   0      0.00%     55.94% # Class of committed instruction
system.cpu.op_class_0::SimdSha1Hash                 0      0.00%     55.94% # Class of committed instruction
system.cpu.op_class_0::SimdSha1Hash2                0      0.00%     55.94% # Class of committed instruction
system.cpu.op_class_0::SimdSha256Hash               0      0.00%     55.94% # Class of committed instruction
system.cpu.op_class_0::SimdSha256Hash2              0      0.00%     55.94% # Class of committed instruction
system.cpu.op_class_0::SimdShaSigma2                0      0.00%     55.94% # Class of committed instruction
system.cpu.op_class_0::SimdShaSigma3                0      0.00%     55.94% # Class of committed instruction
system.cpu.op_class_0::SimdPredAlu                  0      0.00%     55.94% # Class of committed instruction
system.cpu.op_class_0::MemRead               38167611     37.75%     93.69% # Class of committed instruction
system.cpu.op_class_0::MemWrite               6379105      6.31%    100.00% # Class of committed instruction
system.cpu.op_class_0::FloatMemRead                 0      0.00%    100.00% # Class of committed instruction
system.cpu.op_class_0::FloatMemWrite                0      0.00%    100.00% # Class of committed instruction
system.cpu.op_class_0::IprAccess                    0      0.00%    100.00% # Class of committed instruction
system.cpu.op_class_0::InstPrefetch                 0      0.00%    100.00% # Class of committed instruction
system.cpu.op_class_0::total                101102730                       # Class of committed instruction
system.cpu.tickCycles                       115857664                       # Number of cycles that the object actually ticked
system.cpu.workload.numSyscalls                    32                       # Number of system calls
system.membus.snoop_filter.hit_multi_requests            0                       # Number of requests hitting in the snoop filter with multiple (>1) holders of the requested data.
system.membus.snoop_filter.hit_multi_snoops            0                       # Number of snoops hitting in the snoop filter with multiple (>1) holders of the requested data.
system.membus.snoop_filter.hit_single_requests            0                       # Number of requests hitting in the snoop filter with a single holder of the requested data.
system.membus.snoop_filter.hit_single_snoops            0                       # Number of snoops hitting in the snoop filter with a single holder of the requested data.
system.membus.snoop_filter.tot_requests          5489                       # Total number of requests made to the snoop filter.
system.membus.snoop_filter.tot_snoops               0                       # Total number of snoops made to the snoop filter.
system.tol2bus.snoop_filter.hit_multi_requests          315                       # Number of requests hitting in the snoop filter with multiple (>1) holders of the requested data.
system.tol2bus.snoop_filter.hit_multi_snoops            0                       # Number of snoops hitting in the snoop filter with multiple (>1) holders of the requested data.
system.tol2bus.snoop_filter.hit_single_requests         2000                       # Number of requests hitting in the snoop filter with a single holder of the requested data.
system.tol2bus.snoop_filter.hit_single_snoops            0                       # Number of snoops hitting in the snoop filter with a single holder of the requested data.
system.tol2bus.snoop_filter.tot_requests         9092                       # Total number of requests made to the snoop filter.
system.tol2bus.snoop_filter.tot_snoops              0                       # Total number of snoops made to the snoop filter.
system.clk_domain.clock                          1000                       # Clock period in ticks
system.cpu.branchPred.lookups                 6500492                       # Number of BP lookups
system.cpu.branchPred.condPredicted           5092213                       # Number of conditional branches predicted
system.cpu.branchPred.condIncorrect            349147                       # Number of conditional branches incorrect
system.cpu.branchPred.BTBLookups              4082335                       # Number of BTB lookups
system.cpu.branchPred.BTBHits                 4074978                       # Number of BTB hits
system.cpu.branchPred.BTBHitPct             99.819785                       # BTB Hit Percentage
system.cpu.branchPred.RASUsed                  312592                       # Number of times the RAS was used to get a target.
system.cpu.branchPred.RASIncorrect                  4                       # Number of incorrect RAS predictions.
system.cpu.branchPred.indirectLookups          675691                       # Number of indirect predictor lookups.
system.cpu.branchPred.indirectHits             102894                       # Number of indirect target hits.
system.cpu.branchPred.indirectMisses           572797                       # Number of indirect misses.
system.cpu.branchPred.indirectMispredicted        37437                       # Number of mispredicted indirect branches.
system.cpu.dcache.demand_hits::.cpu.data     43912844                       # number of demand (read+write) hits
system.cpu.dcache.demand_hits::total         43912844                       # number of demand (read+write) hits
system.cpu.dcache.overall_hits::.cpu.data     43921458                       # number of overall hits
system.cpu.dcache.overall_hits::total        43921458                       # number of overall hits
system.cpu.dcache.demand_misses::.cpu.data         8585                       # number of demand (read+write) misses
system.cpu.dcache.demand_misses::total           8585                       # number of demand (read+write) misses
system.cpu.dcache.overall_misses::.cpu.data         8687                       # number of overall misses
system.cpu.dcache.overall_misses::total          8687                       # number of overall misses
system.cpu.dcache.demand_miss_latency::.cpu.data    696941000                       # number of demand (read+write) miss cycles
system.cpu.dcache.demand_miss_latency::total    696941000                       # number of demand (read+write) miss cycles
system.cpu.dcache.overall_miss_latency::.cpu.data    696941000                       # number of overall miss cycles
system.cpu.dcache.overall_miss_latency::total    696941000                       # number of overall miss cycles
system.cpu.dcache.demand_accesses::.cpu.data     43921429                       # number of demand (read+write) accesses
system.cpu.dcache.demand_accesses::total     43921429                       # number of demand (read+write) accesses
system.cpu.dcache.overall_accesses::.cpu.data     43930145                       # number of overall (read+write) accesses
system.cpu.dcache.overall_accesses::total     43930145                       # number of overall (read+write) accesses
system.cpu.dcache.demand_miss_rate::.cpu.data     0.000195                       # miss rate for demand accesses
system.cpu.dcache.demand_miss_rate::total     0.000195                       # miss rate for demand accesses
system.cpu.dcache.overall_miss_rate::.cpu.data     0.000198                       # miss rate for overall accesses
system.cpu.dcache.overall_miss_rate::total     0.000198                       # miss rate for overall accesses
system.cpu.dcache.demand_avg_miss_latency::.cpu.data 81181.246360                       # average overall miss latency
system.cpu.dcache.demand_avg_miss_latency::total 81181.246360                       # average overall miss latency
system.cpu.dcache.overall_avg_miss_latency::.cpu.data 80228.041902                       # average overall miss latency
system.cpu.dcache.overall_avg_miss_latency::total 80228.041902                       # average overall miss latency
system.cpu.dcache.blocked_cycles::no_mshrs           62                       # number of cycles access was blocked
system.cpu.dcache.blocked_cycles::no_targets            0                       # number of cycles access was blocked
system.cpu.dcache.blocked::no_mshrs                 1                       # number of cycles access was blocked
system.cpu.dcache.blocked::no_targets               0                       # number of cycles access was blocked
system.cpu.dcache.avg_blocked_cycles::no_mshrs           62                       # average number of cycles each access was blocked
system.cpu.dcache.avg_blocked_cycles::no_targets          nan                       # average number of cycles each access was blocked
system.cpu.dcache.writebacks::.writebacks         1382                       # number of writebacks
system.cpu.dcache.writebacks::total              1382                       # number of writebacks
system.cpu.dcache.demand_mshr_hits::.cpu.data         2908                       # number of demand (read+write) MSHR hits
system.cpu.dcache.demand_mshr_hits::total         2908                       # number of demand (read+write) MSHR hits
system.cpu.dcache.overall_mshr_hits::.cpu.data         2908                       # number of overall MSHR hits
system.cpu.dcache.overall_mshr_hits::total         2908                       # number of overall MSHR hits
system.cpu.dcache.demand_mshr_misses::.cpu.data         5677                       # number of demand (read+write) MSHR misses
system.cpu.dcache.demand_mshr_misses::total         5677                       # number of demand (read+write) MSHR misses
system.cpu.dcache.overall_mshr_misses::.cpu.data         5767                       # number of overall MSHR misses
system.cpu.dcache.overall_mshr_misses::total         5767                       # number of overall MSHR misses
system.cpu.dcache.demand_mshr_miss_latency::.cpu.data    454792000                       # number of demand (read+write) MSHR miss cycles
system.cpu.dcache.demand_mshr_miss_latency::total    454792000                       # number of demand (read+write) MSHR miss cycles
system.cpu.dcache.overall_mshr_miss_latency::.cpu.data    464026000                       # number of overall MSHR miss cycles
system.cpu.dcache.overall_mshr_miss_latency::total    464026000                       # number of overall MSHR miss cycles
system.cpu.dcache.demand_mshr_miss_rate::.cpu.data     0.000129                       # mshr miss rate for demand accesses
system.cpu.dcache.demand_mshr_miss_rate::total     0.000129                       # mshr miss rate for demand accesses
system.cpu.dcache.overall_mshr_miss_rate::.cpu.data     0.000131                       # mshr miss rate for overall accesses
system.cpu.dcache.overall_mshr_miss_rate::total     0.000131                       # mshr miss rate for overall accesses
system.cpu.dcache.demand_avg_mshr_miss_latency::.cpu.data 80111.326405                       # average overall mshr miss latency
system.cpu.dcache.demand_avg_mshr_miss_latency::total 80111.326405                       # average overall mshr miss latency
system.cpu.dcache.overall_avg_mshr_miss_latency::.cpu.data 80462.285417                       # average overall mshr miss latency
system.cpu.dcache.overall_avg_mshr_miss_latency::total 80462.285417                       # average overall mshr miss latency
system.cpu.dcache.replacements                   1963                       # number of replacements
system.cpu.dcache.ReadReq_hits::.cpu.data     37599281                       # number of ReadReq hits
system.cpu.dcache.ReadReq_hits::total        37599281                       # number of ReadReq hits
system.cpu.dcache.ReadReq_misses::.cpu.data         1300                       # number of ReadReq misses
system.cpu.dcache.ReadReq_misses::total          1300                       # number of ReadReq misses
system.cpu.dcache.ReadReq_miss_latency::.cpu.data     72476000                       # number of ReadReq miss cycles
system.cpu.dcache.ReadReq_miss_latency::total     72476000                       # number of ReadReq miss cycles
system.cpu.dcache.ReadReq_accesses::.cpu.data     37600581                       # number of ReadReq accesses(hits+misses)
system.cpu.dcache.ReadReq_accesses::total     37600581                       # number of ReadReq accesses(hits+misses)
system.cpu.dcache.ReadReq_miss_rate::.cpu.data     0.000035                       # miss rate for ReadReq accesses
system.cpu.dcache.ReadReq_miss_rate::total     0.000035                       # miss rate for ReadReq accesses
system.cpu.dcache.ReadReq_avg_miss_latency::.cpu.data 55750.769231                       # average ReadReq miss latency
system.cpu.dcache.ReadReq_avg_miss_latency::total 55750.769231                       # average ReadReq miss latency
system.cpu.dcache.ReadReq_mshr_hits::.cpu.data           56                       # number of ReadReq MSHR hits
system.cpu.dcache.ReadReq_mshr_hits::total           56                       # number of ReadReq MSHR hits
system.cpu.dcache.ReadReq_mshr_misses::.cpu.data         1244                       # number of ReadReq MSHR misses
system.cpu.dcache.ReadReq_mshr_misses::total         1244                       # number of ReadReq MSHR misses
system.cpu.dcache.ReadReq_mshr_miss_latency::.cpu.data     65050000                       # number of ReadReq MSHR miss cycles
system.cpu.dcache.ReadReq_mshr_miss_latency::total     65050000                       # number of ReadReq MSHR miss cycles
system.cpu.dcache.ReadReq_mshr_miss_rate::.cpu.data     0.000033                       # mshr miss rate for ReadReq accesses
system.cpu.dcache.ReadReq_mshr_miss_rate::total     0.000033                       # mshr miss rate for ReadReq accesses
system.cpu.dcache.ReadReq_avg_mshr_miss_latency::.cpu.data 52290.996785                       # average ReadReq mshr miss latency
system.cpu.dcache.ReadReq_avg_mshr_miss_latency::total 52290.996785                       # average ReadReq mshr miss latency
system.cpu.dcache.WriteReq_hits::.cpu.data      6313563                       # number of WriteReq hits
system.cpu.dcache.WriteReq_hits::total        6313563                       # number of WriteReq hits
system.cpu.dcache.WriteReq_misses::.cpu.data         7285                       # number of WriteReq misses
system.cpu.dcache.WriteReq_misses::total         7285                       # number of WriteReq misses
system.cpu.dcache.WriteReq_miss_latency::.cpu.data    624465000                       # number of WriteReq miss cycles
system.cpu.dcache.WriteReq_miss_latency::total    624465000                       # number of WriteReq miss cycles
system.cpu.dcache.WriteReq_accesses::.cpu.data      6320848                       # number of WriteReq accesses(hits+misses)
system.cpu.dcache.WriteReq_accesses::total      6320848                       # number of WriteReq accesses(hits+misses)
system.cpu.dcache.WriteReq_miss_rate::.cpu.data     0.001153                       # miss rate for WriteReq accesses
system.cpu.dcache.WriteReq_miss_rate::total     0.001153                       # miss rate for WriteReq accesses
system.cpu.dcache.WriteReq_avg_miss_latency::.cpu.data 85719.286205                       # average WriteReq miss latency
system.cpu.dcache.WriteReq_avg_miss_latency::total 85719.286205                       # average WriteReq miss latency
system.cpu.dcache.WriteReq_mshr_hits::.cpu.data         2852                       # number of WriteReq MSHR hits
system.cpu.dcache.WriteReq_mshr_hits::total         2852                       # number of WriteReq MSHR hits
system.cpu.dcache.WriteReq_mshr_misses::.cpu.data         4433                       # number of WriteReq MSHR misses
system.cpu.dcache.WriteReq_mshr_misses::total         4433                       # number of WriteReq MSHR misses
system.cpu.dcache.WriteReq_mshr_miss_latency::.cpu.data    389742000                       # number of WriteReq MSHR miss cycles
system.cpu.dcache.WriteReq_mshr_miss_latency::total    389742000                       # number of WriteReq MSHR miss cycles
system.cpu.dcache.WriteReq_mshr_miss_rate::.cpu.data     0.000701                       # mshr miss rate for WriteReq accesses
system.cpu.dcache.WriteReq_mshr_miss_rate::total     0.000701                       # mshr miss rate for WriteReq accesses
system.cpu.dcache.WriteReq_avg_mshr_miss_latency::.cpu.data 87918.339725                       # average WriteReq mshr miss latency
system.cpu.dcache.WriteReq_avg_mshr_miss_latency::total 87918.339725                       # average WriteReq mshr miss latency
system.cpu.dcache.SoftPFReq_hits::.cpu.data         8614                       # number of SoftPFReq hits
system.cpu.dcache.SoftPFReq_hits::total          8614                       # number of SoftPFReq hits
system.cpu.dcache.SoftPFReq_misses::.cpu.data          102                       # number of SoftPFReq misses
system.cpu.dcache.SoftPFReq_misses::total          102                       # number of SoftPFReq misses
system.cpu.dcache.SoftPFReq_accesses::.cpu.data         8716                       # number of SoftPFReq accesses(hits+misses)
system.cpu.dcache.SoftPFReq_accesses::total         8716                       # number of SoftPFReq accesses(hits+misses)
system.cpu.dcache.SoftPFReq_miss_rate::.cpu.data     0.011703                       # miss rate for SoftPFReq accesses
system.cpu.dcache.SoftPFReq_miss_rate::total     0.011703                       # miss rate for SoftPFReq accesses
system.cpu.dcache.SoftPFReq_mshr_misses::.cpu.data           90                       # number of SoftPFReq MSHR misses
system.cpu.dcache.SoftPFReq_mshr_misses::total           90                       # number of SoftPFReq MSHR misses
system.cpu.dcache.SoftPFReq_mshr_miss_latency::.cpu.data      9234000                       # number of SoftPFReq MSHR miss cycles
system.cpu.dcache.SoftPFReq_mshr_miss_latency::total      9234000                       # number of SoftPFReq MSHR miss cycles
system.cpu.dcache.SoftPFReq_mshr_miss_rate::.cpu.data     0.010326                       # mshr miss rate for SoftPFReq accesses
system.cpu.dcache.SoftPFReq_mshr_miss_rate::total     0.010326                       # mshr miss rate for SoftPFReq accesses
system.cpu.dcache.SoftPFReq_avg_mshr_miss_latency::.cpu.data       102600                       # average SoftPFReq mshr miss latency
system.cpu.dcache.SoftPFReq_avg_mshr_miss_latency::total       102600                       # average SoftPFReq mshr miss latency
system.cpu.dcache.LoadLockedReq_hits::.cpu.data          165                       # number of LoadLockedReq hits
system.cpu.dcache.LoadLockedReq_hits::total          165                       # number of LoadLockedReq hits
system.cpu.dcache.LoadLockedReq_misses::.cpu.data            1                       # number of LoadLockedReq misses
system.cpu.dcache.LoadLockedReq_misses::total            1                       # number of LoadLockedReq misses
system.cpu.dcache.LoadLockedReq_miss_latency::.cpu.data       109000                       # number of LoadLockedReq miss cycles
system.cpu.dcache.LoadLockedReq_miss_latency::total       109000                       # number of LoadLockedReq miss cycles
system.cpu.dcache.LoadLockedReq_accesses::.cpu.data          166                       # number of LoadLockedReq accesses(hits+misses)
system.cpu.dcache.LoadLockedReq_accesses::total          166                       # number of LoadLockedReq accesses(hits+misses)
system.cpu.dcache.LoadLockedReq_miss_rate::.cpu.data     0.006024                       # miss rate for LoadLockedReq accesses
system.cpu.dcache.LoadLockedReq_miss_rate::total     0.006024                       # miss rate for LoadLockedReq accesses
system.cpu.dcache.LoadLockedReq_avg_miss_latency::.cpu.data       109000                       # average LoadLockedReq miss latency
system.cpu.dcache.LoadLockedReq_avg_miss_latency::total       109000                       # average LoadLockedReq miss latency
system.cpu.dcache.LoadLockedReq_mshr_misses::.cpu.data            1                       # number of LoadLockedReq MSHR misses
system.cpu.dcache.LoadLockedReq_mshr_misses::total            1                       # number of LoadLockedReq MSHR misses
system.cpu.dcache.LoadLockedReq_mshr_miss_latency::.cpu.data       107000                       # number of LoadLockedReq MSHR miss cycles
system.cpu.dcache.LoadLockedReq_mshr_miss_latency::total       107000                       # number of LoadLockedReq MSHR miss cycles
system.cpu.dcache.LoadLockedReq_mshr_miss_rate::.cpu.data     0.006024                       # mshr miss rate for LoadLockedReq accesses
system.cpu.dcache.LoadLockedReq_mshr_miss_rate::total     0.006024                       # mshr miss rate for LoadLockedReq accesses
system.cpu.dcache.LoadLockedReq_avg_mshr_miss_latency::.cpu.data       107000                       # average LoadLockedReq mshr miss latency
system.cpu.dcache.LoadLockedReq_avg_mshr_miss_latency::total       107000                       # average LoadLockedReq mshr miss latency
system.cpu.dcache.StoreCondReq_hits::.cpu.data          166                       # number of StoreCondReq hits
system.cpu.dcache.StoreCondReq_hits::total          166                       # number of StoreCondReq hits
system.cpu.dcache.StoreCondReq_accesses::.cpu.data          166                       # number of StoreCondReq accesses(hits+misses)
system.cpu.dcache.StoreCondReq_accesses::total          166                       # number of StoreCondReq accesses(hits+misses)
system.cpu.dcache.power_state.pwrStateResidencyTicks::UNDEFINED 118122260000                       # Cumulative time (in ticks) in various power states
system.cpu.dcache.tags.tagsinuse          3642.898738                       # Cycle average of tags in use
system.cpu.dcache.tags.total_refs            43927557                       # Total number of references to valid blocks.
system.cpu.dcache.tags.sampled_refs              5768                       # Sample count of references to valid blocks.
system.cpu.dcache.tags.avg_refs           7615.734570                       # Average number of references to valid blocks.
system.cpu.dcache.tags.warmup_cycle            223000                       # Cycle when the warmup percentage was hit.
system.cpu.dcache.tags.occ_blocks::.cpu.data  3642.898738                       # Average occupied blocks per requestor
system.cpu.dcache.tags.occ_percent::.cpu.data     0.889380                       # Average percentage of cache occupancy
system.cpu.dcache.tags.occ_percent::total     0.889380                       # Average percentage of cache occupancy
system.cpu.dcache.tags.occ_task_id_blocks::1024         3805                       # Occupied blocks per task id
system.cpu.dcache.tags.age_task_id_blocks_1024::1            3                       # Occupied blocks per task id
system.cpu.dcache.tags.age_task_id_blocks_1024::2           11                       # Occupied blocks per task id
system.cpu.dcache.tags.age_task_id_blocks_1024::3           31                       # Occupied blocks per task id
system.cpu.dcache.tags.age_task_id_blocks_1024::4         3760                       # Occupied blocks per task id
system.cpu.dcache.tags.occ_task_id_percent::1024     0.928955                       # Percentage of cache occupancy per task id
system.cpu.dcache.tags.tag_accesses          87866722                       # Number of tag accesses
system.cpu.dcache.tags.data_accesses         87866722                       # Number of data accesses
system.cpu.dcache.tags.power_state.pwrStateResidencyTicks::UNDEFINED 118122260000                       # Cumulative time (in ticks) in various power states
system.cpu.dtb.instHits                             0                       # ITB inst hits
system.cpu.dtb.instMisses                           0                       # ITB inst misses
system.cpu.dtb.readHits                             0                       # DTB read hits
system.cpu.dtb.readMisses                           0                       # DTB read misses
system.cpu.dtb.writeHits                            0                       # DTB write hits
system.cpu.dtb.writeMisses                          0                       # DTB write misses
system.cpu.dtb.inserts                              0                       # Number of times an entry is inserted into the TLB
system.cpu.dtb.flushTlb                             0                       # Number of times complete TLB was flushed
system.cpu.dtb.flushTlbMva                          0                       # Number of times TLB was flushed by MVA
system.cpu.dtb.flushTlbMvaAsid                      0                       # Number of times TLB was flushed by MVA & ASID
system.cpu.dtb.flushTlbAsid                         0                       # Number of times TLB was flushed by ASID
system.cpu.dtb.flushedEntries                       0                       # Number of entries that have been flushed from TLB
system.cpu.dtb.alignFaults                          0                       # Number of TLB faults due to alignment restrictions
system.cpu.dtb.prefetchFaults                       0                       # Number of TLB faults due to prefetch
system.cpu.dtb.domainFaults                         0                       # Number of TLB faults due to domain restrictions
system.cpu.dtb.permsFaults                          0                       # Number of TLB faults due to permissions restrictions
system.cpu.dtb.readAccesses                         0                       # DTB read accesses
system.cpu.dtb.writeAccesses                        0                       # DTB write accesses
system.cpu.dtb.instAccesses                         0                       # ITB inst accesses
system.cpu.dtb.hits                                 0                       # Total TLB (inst and data) hits
system.cpu.dtb.misses                               0                       # Total TLB (inst and data) misses
system.cpu.dtb.accesses                             0                       # Total TLB (inst and data) accesses
system.cpu.dtb.stage2_mmu.stage2_tlb.instHits            0                       # ITB inst hits
system.cpu.dtb.stage2_mmu.stage2_tlb.instMisses            0                       # ITB inst misses
system.cpu.dtb.stage2_mmu.stage2_tlb.readHits            0                       # DTB read hits
system.cpu.dtb.stage2_mmu.stage2_tlb.readMisses            0                       # DTB read misses
system.cpu.dtb.stage2_mmu.stage2_tlb.writeHits            0                       # DTB write hits
system.cpu.dtb.stage2_mmu.stage2_tlb.writeMisses            0                       # DTB write misses
system.cpu.dtb.stage2_mmu.stage2_tlb.inserts            0                       # Number of times an entry is inserted into the TLB
system.cpu.dtb.stage2_mmu.stage2_tlb.flushTlb            0                       # Number of times complete TLB was flushed
system.cpu.dtb.stage2_mmu.stage2_tlb.flushTlbMva            0                       # Number of times TLB was flushed by MVA
system.cpu.dtb.stage2_mmu.stage2_tlb.flushTlbMvaAsid            0                       # Number of times TLB was flushed by MVA & ASID
system.cpu.dtb.stage2_mmu.stage2_tlb.flushTlbAsid            0                       # Number of times TLB was flushed by ASID
system.cpu.dtb.stage2_mmu.stage2_tlb.flushedEntries            0                       # Number of entries that have been flushed from TLB
system.cpu.dtb.stage2_mmu.stage2_tlb.alignFaults            0                       # Number of TLB faults due to alignment restrictions
system.cpu.dtb.stage2_mmu.stage2_tlb.prefetchFaults            0                       # Number of TLB faults due to prefetch
system.cpu.dtb.stage2_mmu.stage2_tlb.domainFaults            0                       # Number of TLB faults due to domain restrictions
system.cpu.dtb.stage2_mmu.stage2_tlb.permsFaults            0                       # Number of TLB faults due to permissions restrictions
system.cpu.dtb.stage2_mmu.stage2_tlb.readAccesses            0                       # DTB read accesses
system.cpu.dtb.stage2_mmu.stage2_tlb.writeAccesses            0                       # DTB write accesses
system.cpu.dtb.stage2_mmu.stage2_tlb.instAccesses            0                       # ITB inst accesses
system.cpu.dtb.stage2_mmu.stage2_tlb.hits            0                       # Total TLB (inst and data) hits
system.cpu.dtb.stage2_mmu.stage2_tlb.misses            0                       # Total TLB (inst and data) misses
system.cpu.dtb.stage2_mmu.stage2_tlb.accesses            0                       # Total TLB (inst and data) accesses
system.cpu.dtb.stage2_mmu.stage2_tlb.walker.walks            0                       # Table walker walks requested
system.cpu.dtb.stage2_mmu.stage2_tlb.walker.requestOrigin_Requested::Data            0                       # Table walker requests started/completed, data/inst
system.cpu.dtb.stage2_mmu.stage2_tlb.walker.requestOrigin_Requested::Inst            0                       # Table walker requests started/completed, data/inst
system.cpu.dtb.stage2_mmu.stage2_tlb.walker.requestOrigin_Requested::total            0                       # Table walker requests started/completed, data/inst
system.cpu.dtb.stage2_mmu.stage2_tlb.walker.requestOrigin_Completed::Data            0                       # Table walker requests started/completed, data/inst
system.cpu.dtb.stage2_mmu.stage2_tlb.walker.requestOrigin_Completed::Inst            0                       # Table walker requests started/completed, data/inst
system.cpu.dtb.stage2_mmu.stage2_tlb.walker.requestOrigin_Completed::total            0                       # Table walker requests started/completed, data/inst
system.cpu.dtb.stage2_mmu.stage2_tlb.walker.requestOrigin::total            0                       # Table walker requests started/completed, data/inst
system.cpu.dtb.stage2_mmu.stage2_tlb.walker.power_state.pwrStateResidencyTicks::UNDEFINED 118122260000                       # Cumulative time (in ticks) in various power states
system.cpu.dtb.walker.walks                         0                       # Table walker walks requested
system.cpu.dtb.walker.requestOrigin_Requested::Data            0                       # Table walker requests started/completed, data/inst
system.cpu.dtb.walker.requestOrigin_Requested::Inst            0                       # Table walker requests started/completed, data/inst
system.cpu.dtb.walker.requestOrigin_Requested::total            0                       # Table walker requests started/completed, data/inst
system.cpu.dtb.walker.requestOrigin_Completed::Data            0                       # Table walker requests started/completed, data/inst
system.cpu.dtb.walker.requestOrigin_Completed::Inst            0                       # Table walker requests started/completed, data/inst
system.cpu.dtb.walker.requestOrigin_Completed::total            0                       # Table walker requests started/completed, data/inst
system.cpu.dtb.walker.requestOrigin::total            0                       # Table walker requests started/completed, data/inst
system.cpu.dtb.walker.power_state.pwrStateResidencyTicks::UNDEFINED 118122260000                       # Cumulative time (in ticks) in various power states
system.cpu.fetch2.intInstructions            48868540                       # Number of integer instructions successfully decoded
system.cpu.fetch2.fpInstructions                    0                       # Number of floating point instructions successfully decoded
system.cpu.fetch2.vecInstructions                   0                       # Number of SIMD instructions successfully decoded
system.cpu.fetch2.loadInstructions           40552040                       # Number of memory load instructions successfully decoded
system.cpu.fetch2.storeInstructions           6265838                       # Number of memory store instructions successfully decoded
system.cpu.fetch2.amoInstructions                   0                       # Number of memory atomic instructions successfully decoded
system.cpu.icache.demand_hits::.cpu.inst     17290963                       # number of demand (read+write) hits
system.cpu.icache.demand_hits::total         17290963                       # number of demand (read+write) hits
system.cpu.icache.overall_hits::.cpu.inst     17290963                       # number of overall hits
system.cpu.icache.overall_hits::total        17290963                       # number of overall hits
system.cpu.icache.demand_misses::.cpu.inst         1353                       # number of demand (read+write) misses
system.cpu.icache.demand_misses::total           1353                       # number of demand (read+write) misses
system.cpu.icache.overall_misses::.cpu.inst         1353                       # number of overall misses
system.cpu.icache.overall_misses::total          1353                       # number of overall misses
system.cpu.icache.demand_miss_latency::.cpu.inst    134193000                       # number of demand (read+write) miss cycles
system.cpu.icache.demand_miss_latency::total    134193000                       # number of demand (read+write) miss cycles
system.cpu.icache.overall_miss_latency::.cpu.inst    134193000                       # number of overall miss cycles
system.cpu.icache.overall_miss_latency::total    134193000                       # number of overall miss cycles
system.cpu.icache.demand_accesses::.cpu.inst     17292316                       # number of demand (read+write) accesses
system.cpu.icache.demand_accesses::total     17292316                       # number of demand (read+write) accesses
system.cpu.icache.overall_accesses::.cpu.inst     17292316                       # number of overall (read+write) accesses
system.cpu.icache.overall_accesses::total     17292316                       # number of overall (read+write) accesses
system.cpu.icache.demand_miss_rate::.cpu.inst     0.000078                       # miss rate for demand accesses
system.cpu.icache.demand_miss_rate::total     0.000078                       # miss rate for demand accesses
system.cpu.icache.overall_miss_rate::.cpu.inst     0.000078                       # miss rate for overall accesses
system.cpu.icache.overall_miss_rate::total     0.000078                       # miss rate for overall accesses
system.cpu.icache.demand_avg_miss_latency::.cpu.inst 99181.818182                       # average overall miss latency
system.cpu.icache.demand_avg_miss_latency::total 99181.818182                       # average overall miss latency
system.cpu.icache.overall_avg_miss_latency::.cpu.inst 99181.818182                       # average overall miss latency
system.cpu.icache.overall_avg_miss_latency::total 99181.818182                       # average overall miss latency
system.cpu.icache.blocked_cycles::no_mshrs            0                       # number of cycles access was blocked
system.cpu.icache.blocked_cycles::no_targets            0                       # number of cycles access was blocked
system.cpu.icache.blocked::no_mshrs                 0                       # number of cycles access was blocked
system.cpu.icache.blocked::no_targets               0                       # number of cycles access was blocked
system.cpu.icache.avg_blocked_cycles::no_mshrs          nan                       # average number of cycles each access was blocked
system.cpu.icache.avg_blocked_cycles::no_targets          nan                       # average number of cycles each access was blocked
system.cpu.icache.writebacks::.writebacks            8                       # number of writebacks
system.cpu.icache.writebacks::total                 8                       # number of writebacks
system.cpu.icache.demand_mshr_misses::.cpu.inst         1353                       # number of demand (read+write) MSHR misses
system.cpu.icache.demand_mshr_misses::total         1353                       # number of demand (read+write) MSHR misses
system.cpu.icache.overall_mshr_misses::.cpu.inst         1353                       # number of overall MSHR misses
system.cpu.icache.overall_mshr_misses::total         1353                       # number of overall MSHR misses
system.cpu.icache.demand_mshr_miss_latency::.cpu.inst    131487000                       # number of demand (read+write) MSHR miss cycles
system.cpu.icache.demand_mshr_miss_latency::total    131487000                       # number of demand (read+write) MSHR miss cycles
system.cpu.icache.overall_mshr_miss_latency::.cpu.inst    131487000                       # number of overall MSHR miss cycles
system.cpu.icache.overall_mshr_miss_latency::total    131487000                       # number of overall MSHR miss cycles
system.cpu.icache.demand_mshr_miss_rate::.cpu.inst     0.000078                       # mshr miss rate for demand accesses
system.cpu.icache.demand_mshr_miss_rate::total     0.000078                       # mshr miss rate for demand accesses
system.cpu.icache.overall_mshr_miss_rate::.cpu.inst     0.000078                       # mshr miss rate for overall accesses
system.cpu.icache.overall_mshr_miss_rate::total     0.000078                       # mshr miss rate for overall accesses
system.cpu.icache.demand_avg_mshr_miss_latency::.cpu.inst 97181.818182                       # average overall mshr miss latency
system.cpu.icache.demand_avg_mshr_miss_latency::total 97181.818182                       # average overall mshr miss latency
system.cpu.icache.overall_avg_mshr_miss_latency::.cpu.inst 97181.818182                       # average overall mshr miss latency
system.cpu.icache.overall_avg_mshr_miss_latency::total 97181.818182                       # average overall mshr miss latency
system.cpu.icache.replacements                      8                       # number of replacements
system.cpu.icache.ReadReq_hits::.cpu.inst     17290963                       # number of ReadReq hits
system.cpu.icache.ReadReq_hits::total        17290963                       # number of ReadReq hits
system.cpu.icache.ReadReq_misses::.cpu.inst         1353                       # number of ReadReq misses
system.cpu.icache.ReadReq_misses::total          1353                       # number of ReadReq misses
system.cpu.icache.ReadReq_miss_latency::.cpu.inst    134193000                       # number of ReadReq miss cycles
system.cpu.icache.ReadReq_miss_latency::total    134193000                       # number of ReadReq miss cycles
system.cpu.icache.ReadReq_accesses::.cpu.inst     17292316                       # number of ReadReq accesses(hits+misses)
system.cpu.icache.ReadReq_accesses::total     17292316                       # number of ReadReq accesses(hits+misses)
system.cpu.icache.ReadReq_miss_rate::.cpu.inst     0.000078                       # miss rate for ReadReq accesses
system.cpu.icache.ReadReq_miss_rate::total     0.000078                       # miss rate for ReadReq accesses
system.cpu.icache.ReadReq_avg_miss_latency::.cpu.inst 99181.818182                       # average ReadReq miss latency
system.cpu.icache.ReadReq_avg_miss_latency::total 99181.818182                       # average ReadReq miss latency
system.cpu.icache.ReadReq_mshr_misses::.cpu.inst         1353                       # number of ReadReq MSHR misses
system.cpu.icache.ReadReq_mshr_misses::total         1353                       # number of ReadReq MSHR misses
system.cpu.icache.ReadReq_mshr_miss_latency::.cpu.inst    131487000                       # number of ReadReq MSHR miss cycles
system.cpu.icache.ReadReq_mshr_miss_latency::total    131487000                       # number of ReadReq MSHR miss cycles
system.cpu.icache.ReadReq_mshr_miss_rate::.cpu.inst     0.000078                       # mshr miss rate for ReadReq accesses
system.cpu.icache.ReadReq_mshr_miss_rate::total     0.000078                       # mshr miss rate for ReadReq accesses
system.cpu.icache.ReadReq_avg_mshr_miss_latency::.cpu.inst 97181.818182                       # average ReadReq mshr miss latency
system.cpu.icache.ReadReq_avg_mshr_miss_latency::total 97181.818182                       # average ReadReq mshr miss latency
system.cpu.icache.power_state.pwrStateResidencyTicks::UNDEFINED 118122260000                       # Cumulative time (in ticks) in various power states
system.cpu.icache.tags.tagsinuse          1338.089320                       # Cycle average of tags in use
system.cpu.icache.tags.total_refs            17292316                       # Total number of references to valid blocks.
system.cpu.icache.tags.sampled_refs              1353                       # Sample count of references to valid blocks.
system.cpu.icache.tags.avg_refs          12780.721360                       # Average number of references to valid blocks.
system.cpu.icache.tags.warmup_cycle            108000                       # Cycle when the warmup percentage was hit.
system.cpu.icache.tags.occ_blocks::.cpu.inst  1338.089320                       # Average occupied blocks per requestor
system.cpu.icache.tags.occ_percent::.cpu.inst     0.326682                       # Average percentage of cache occupancy
system.cpu.icache.tags.occ_percent::total     0.326682                       # Average percentage of cache occupancy
system.cpu.icache.tags.occ_task_id_blocks::1024         1345                       # Occupied blocks per task id
system.cpu.icache.tags.age_task_id_blocks_1024::4         1345                       # Occupied blocks per task id
system.cpu.icache.tags.occ_task_id_percent::1024     0.328369                       # Percentage of cache occupancy per task id
system.cpu.icache.tags.tag_accesses          34585985                       # Number of tag accesses
system.cpu.icache.tags.data_accesses         34585985                       # Number of data accesses
system.cpu.icache.tags.power_state.pwrStateResidencyTicks::UNDEFINED 118122260000                       # Cumulative time (in ticks) in various power states
system.cpu.itb.instHits                             0                       # ITB inst hits
system.cpu.itb.instMisses                           0                       # ITB inst misses
system.cpu.itb.readHits                             0                       # DTB read hits
system.cpu.itb.readMisses                           0                       # DTB read misses
system.cpu.itb.writeHits                            0                       # DTB write hits
system.cpu.itb.writeMisses                          0                       # DTB write misses
system.cpu.itb.inserts                              0                       # Number of times an entry is inserted into the TLB
system.cpu.itb.flushTlb                             0                       # Number of times complete TLB was flushed
system.cpu.itb.flushTlbMva                          0                       # Number of times TLB was flushed by MVA
system.cpu.itb.flushTlbMvaAsid                      0                       # Number of times TLB was flushed by MVA & ASID
system.cpu.itb.flushTlbAsid                         0                       # Number of times TLB was flushed by ASID
system.cpu.itb.flushedEntries                       0                       # Number of entries that have been flushed from TLB
system.cpu.itb.alignFaults                          0                       # Number of TLB faults due to alignment restrictions
system.cpu.itb.prefetchFaults                       0                       # Number of TLB faults due to prefetch
system.cpu.itb.domainFaults                         0                       # Number of TLB faults due to domain restrictions
system.cpu.itb.permsFaults                          0                       # Number of TLB faults due to permissions restrictions
system.cpu.itb.readAccesses                         0                       # DTB read accesses
system.cpu.itb.writeAccesses                        0                       # DTB write accesses
system.cpu.itb.instAccesses                         0                       # ITB inst accesses
system.cpu.itb.hits                                 0                       # Total TLB (inst and data) hits
system.cpu.itb.misses                               0                       # Total TLB (inst and data) misses
system.cpu.itb.accesses                             0                       # Total TLB (inst and data) accesses
system.cpu.itb.stage2_mmu.stage2_tlb.instHits            0                       # ITB inst hits
system.cpu.itb.stage2_mmu.stage2_tlb.instMisses            0                       # ITB inst misses
system.cpu.itb.stage2_mmu.stage2_tlb.readHits            0                       # DTB read hits
system.cpu.itb.stage2_mmu.stage2_tlb.readMisses            0                       # DTB read misses
system.cpu.itb.stage2_mmu.stage2_tlb.writeHits            0                       # DTB write hits
system.cpu.itb.stage2_mmu.stage2_tlb.writeMisses            0                       # DTB write misses
system.cpu.itb.stage2_mmu.stage2_tlb.inserts            0                       # Number of times an entry is inserted into the TLB
system.cpu.itb.stage2_mmu.stage2_tlb.flushTlb            0                       # Number of times complete TLB was flushed
system.cpu.itb.stage2_mmu.stage2_tlb.flushTlbMva            0                       # Number of times TLB was flushed by MVA
system.cpu.itb.stage2_mmu.stage2_tlb.flushTlbMvaAsid            0                       # Number of times TLB was flushed by MVA & ASID
system.cpu.itb.stage2_mmu.stage2_tlb.flushTlbAsid            0                       # Number of times TLB was flushed by ASID
system.cpu.itb.stage2_mmu.stage2_tlb.flushedEntries            0                       # Number of entries that have been flushed from TLB
system.cpu.itb.stage2_mmu.stage2_tlb.alignFaults            0                       # Number of TLB faults due to alignment restrictions
system.cpu.itb.stage2_mmu.stage2_tlb.prefetchFaults            0                       # Number of TLB faults due to prefetch
system.cpu.itb.stage2_mmu.stage2_tlb.domainFaults            0                       # Number of TLB faults due to domain restrictions
system.cpu.itb.stage2_mmu.stage2_tlb.permsFaults            0                       # Number of TLB faults due to permissions restrictions
system.cpu.itb.stage2_mmu.stage2_tlb.readAccesses            0                       # DTB read accesses
system.cpu.itb.stage2_mmu.stage2_tlb.writeAccesses            0                       # DTB write accesses
system.cpu.itb.stage2_mmu.stage2_tlb.instAccesses            0                       # ITB inst accesses
system.cpu.itb.stage2_mmu.stage2_tlb.hits            0                       # Total TLB (inst and data) hits
system.cpu.itb.stage2_mmu.stage2_tlb.misses            0                       # Total TLB (inst and data) misses
system.cpu.itb.stage2_mmu.stage2_tlb.accesses            0                       # Total TLB (inst and data) accesses
system.cpu.itb.stage2_mmu.stage2_tlb.walker.walks            0                       # Table walker walks requested
system.cpu.itb.stage2_mmu.stage2_tlb.walker.requestOrigin_Requested::Data            0                       # Table walker requests started/completed, data/inst
system.cpu.itb.stage2_mmu.stage2_tlb.walker.requestOrigin_Requested::Inst            0                       # Table walker requests started/completed, data/inst
system.cpu.itb.stage2_mmu.stage2_tlb.walker.requestOrigin_Requested::total            0                       # Table walker requests started/completed, data/inst
system.cpu.itb.stage2_mmu.stage2_tlb.walker.requestOrigin_Completed::Data            0                       # Table walker requests started/completed, data/inst
system.cpu.itb.stage2_mmu.stage2_tlb.walker.requestOrigin_Completed::Inst            0                       # Table walker requests started/completed, data/inst
system.cpu.itb.stage2_mmu.stage2_tlb.walker.requestOrigin_Completed::total            0                       # Table walker requests started/completed, data/inst
system.cpu.itb.stage2_mmu.stage2_tlb.walker.requestOrigin::total            0                       # Table walker requests started/completed, data/inst
system.cpu.itb.stage2_mmu.stage2_tlb.walker.power_state.pwrStateResidencyTicks::UNDEFINED 118122260000                       # Cumulative time (in ticks) in various power states
system.cpu.itb.walker.walks                         0                       # Table walker walks requested
system.cpu.itb.walker.requestOrigin_Requested::Data            0                       # Table walker requests started/completed, data/inst
system.cpu.itb.walker.requestOrigin_Requested::Inst            0                       # Table walker requests started/completed, data/inst
system.cpu.itb.walker.requestOrigin_Requested::total            0                       # Table walker requests started/completed, data/inst
system.cpu.itb.walker.requestOrigin_Completed::Data            0                       # Table walker requests started/completed, data/inst
system.cpu.itb.walker.requestOrigin_Completed::Inst            0                       # Table walker requests started/completed, data/inst
system.cpu.itb.walker.requestOrigin_Completed::total            0                       # Table walker requests started/completed, data/inst
system.cpu.itb.walker.requestOrigin::total            0                       # Table walker requests started/completed, data/inst
system.cpu.itb.walker.power_state.pwrStateResidencyTicks::UNDEFINED 118122260000                       # Cumulative time (in ticks) in various power states
system.cpu.power_state.pwrStateResidencyTicks::ON 118122260000                       # Cumulative time (in ticks) in various power states
system.cpu.thread_0.numInsts                100000000                       # Number of Instructions committed
system.cpu.thread_0.numOps                  101102730                       # Number of Ops committed
system.cpu.thread_0.numMemRefs                      0                       # Number of Memory References
system.cpu_clk_domain.clock                      1000                       # Clock period in ticks
system.cpu_voltage_domain.voltage                   1                       # Voltage in Volts
system.l2.demand_hits::.cpu.inst                   49                       # number of demand (read+write) hits
system.l2.demand_hits::.cpu.data                 1576                       # number of demand (read+write) hits
system.l2.demand_hits::total                     1625                       # number of demand (read+write) hits
system.l2.overall_hits::.cpu.inst                  49                       # number of overall hits
system.l2.overall_hits::.cpu.data                1576                       # number of overall hits
system.l2.overall_hits::total                    1625                       # number of overall hits
system.l2.demand_misses::.cpu.inst               1304                       # number of demand (read+write) misses
system.l2.demand_misses::.cpu.data               4192                       # number of demand (read+write) misses
system.l2.demand_misses::total                   5496                       # number of demand (read+write) misses
system.l2.overall_misses::.cpu.inst              1304                       # number of overall misses
system.l2.overall_misses::.cpu.data              4192                       # number of overall misses
system.l2.overall_misses::total                  5496                       # number of overall misses
system.l2.demand_miss_latency::.cpu.inst    126302000                       # number of demand (read+write) miss cycles
system.l2.demand_miss_latency::.cpu.data    413141000                       # number of demand (read+write) miss cycles
system.l2.demand_miss_latency::total        539443000                       # number of demand (read+write) miss cycles
system.l2.overall_miss_latency::.cpu.inst    126302000                       # number of overall miss cycles
system.l2.overall_miss_latency::.cpu.data    413141000                       # number of overall miss cycles
system.l2.overall_miss_latency::total       539443000                       # number of overall miss cycles
system.l2.demand_accesses::.cpu.inst             1353                       # number of demand (read+write) accesses
system.l2.demand_accesses::.cpu.data             5768                       # number of demand (read+write) accesses
system.l2.demand_accesses::total                 7121                       # number of demand (read+write) accesses
system.l2.overall_accesses::.cpu.inst            1353                       # number of overall (read+write) accesses
system.l2.overall_accesses::.cpu.data            5768                       # number of overall (read+write) accesses
system.l2.overall_accesses::total                7121                       # number of overall (read+write) accesses
system.l2.demand_miss_rate::.cpu.inst        0.963784                       # miss rate for demand accesses
system.l2.demand_miss_rate::.cpu.data        0.726768                       # miss rate for demand accesses
system.l2.demand_miss_rate::total            0.771802                       # miss rate for demand accesses
system.l2.overall_miss_rate::.cpu.inst       0.963784                       # miss rate for overall accesses
system.l2.overall_miss_rate::.cpu.data       0.726768                       # miss rate for overall accesses
system.l2.overall_miss_rate::total           0.771802                       # miss rate for overall accesses
system.l2.demand_avg_miss_latency::.cpu.inst 96857.361963                       # average overall miss latency
system.l2.demand_avg_miss_latency::.cpu.data 98554.627863                       # average overall miss latency
system.l2.demand_avg_miss_latency::total 98151.928675                       # average overall miss latency
system.l2.overall_avg_miss_latency::.cpu.inst 96857.361963                       # average overall miss latency
system.l2.overall_avg_miss_latency::.cpu.data 98554.627863                       # average overall miss latency
system.l2.overall_avg_miss_latency::total 98151.928675                       # average overall miss latency
system.l2.blocked_cycles::no_mshrs                  0                       # number of cycles access was blocked
system.l2.blocked_cycles::no_targets                0                       # number of cycles access was blocked
system.l2.blocked::no_mshrs                         0                       # number of cycles access was blocked
system.l2.blocked::no_targets                       0                       # number of cycles access was blocked
system.l2.avg_blocked_cycles::no_mshrs            nan                       # average number of cycles each access was blocked
system.l2.avg_blocked_cycles::no_targets          nan                       # average number of cycles each access was blocked
system.l2.demand_mshr_hits::.cpu.inst               1                       # number of demand (read+write) MSHR hits
system.l2.demand_mshr_hits::.cpu.data               6                       # number of demand (read+write) MSHR hits
system.l2.demand_mshr_hits::total                   7                       # number of demand (read+write) MSHR hits
system.l2.overall_mshr_hits::.cpu.inst              1                       # number of overall MSHR hits
system.l2.overall_mshr_hits::.cpu.data              6                       # number of overall MSHR hits
system.l2.overall_mshr_hits::total                  7                       # number of overall MSHR hits
system.l2.demand_mshr_misses::.cpu.inst          1303                       # number of demand (read+write) MSHR misses
system.l2.demand_mshr_misses::.cpu.data          4186                       # number of demand (read+write) MSHR misses
system.l2.demand_mshr_misses::total              5489                       # number of demand (read+write) MSHR misses
system.l2.overall_mshr_misses::.cpu.inst         1303                       # number of overall MSHR misses
system.l2.overall_mshr_misses::.cpu.data         4186                       # number of overall MSHR misses
system.l2.overall_mshr_misses::total             5489                       # number of overall MSHR misses
system.l2.demand_mshr_miss_latency::.cpu.inst    100163000                       # number of demand (read+write) MSHR miss cycles
system.l2.demand_mshr_miss_latency::.cpu.data    328970000                       # number of demand (read+write) MSHR miss cycles
system.l2.demand_mshr_miss_latency::total    429133000                       # number of demand (read+write) MSHR miss cycles
system.l2.overall_mshr_miss_latency::.cpu.inst    100163000                       # number of overall MSHR miss cycles
system.l2.overall_mshr_miss_latency::.cpu.data    328970000                       # number of overall MSHR miss cycles
system.l2.overall_mshr_miss_latency::total    429133000                       # number of overall MSHR miss cycles
system.l2.demand_mshr_miss_rate::.cpu.inst     0.963045                       # mshr miss rate for demand accesses
system.l2.demand_mshr_miss_rate::.cpu.data     0.725728                       # mshr miss rate for demand accesses
system.l2.demand_mshr_miss_rate::total       0.770819                       # mshr miss rate for demand accesses
system.l2.overall_mshr_miss_rate::.cpu.inst     0.963045                       # mshr miss rate for overall accesses
system.l2.overall_mshr_miss_rate::.cpu.data     0.725728                       # mshr miss rate for overall accesses
system.l2.overall_mshr_miss_rate::total      0.770819                       # mshr miss rate for overall accesses
system.l2.demand_avg_mshr_miss_latency::.cpu.inst 76871.066769                       # average overall mshr miss latency
system.l2.demand_avg_mshr_miss_latency::.cpu.data 78588.150979                       # average overall mshr miss latency
system.l2.demand_avg_mshr_miss_latency::total 78180.542904                       # average overall mshr miss latency
system.l2.overall_avg_mshr_miss_latency::.cpu.inst 76871.066769                       # average overall mshr miss latency
system.l2.overall_avg_mshr_miss_latency::.cpu.data 78588.150979                       # average overall mshr miss latency
system.l2.overall_avg_mshr_miss_latency::total 78180.542904                       # average overall mshr miss latency
system.l2.replacements                              0                       # number of replacements
system.l2.WritebackDirty_hits::.writebacks         1382                       # number of WritebackDirty hits
system.l2.WritebackDirty_hits::total             1382                       # number of WritebackDirty hits
system.l2.WritebackDirty_accesses::.writebacks         1382                       # number of WritebackDirty accesses(hits+misses)
system.l2.WritebackDirty_accesses::total         1382                       # number of WritebackDirty accesses(hits+misses)
system.l2.WritebackClean_hits::.writebacks            8                       # number of WritebackClean hits
system.l2.WritebackClean_hits::total                8                       # number of WritebackClean hits
system.l2.WritebackClean_accesses::.writebacks            8                       # number of WritebackClean accesses(hits+misses)
system.l2.WritebackClean_accesses::total            8                       # number of WritebackClean accesses(hits+misses)
system.l2.ReadExReq_hits::.cpu.data               767                       # number of ReadExReq hits
system.l2.ReadExReq_hits::total                   767                       # number of ReadExReq hits
system.l2.ReadExReq_misses::.cpu.data            3666                       # number of ReadExReq misses
system.l2.ReadExReq_misses::total                3666                       # number of ReadExReq misses
system.l2.ReadExReq_miss_latency::.cpu.data    360331000                       # number of ReadExReq miss cycles
system.l2.ReadExReq_miss_latency::total     360331000                       # number of ReadExReq miss cycles
system.l2.ReadExReq_accesses::.cpu.data          4433                       # number of ReadExReq accesses(hits+misses)
system.l2.ReadExReq_accesses::total              4433                       # number of ReadExReq accesses(hits+misses)
system.l2.ReadExReq_miss_rate::.cpu.data     0.826979                       # miss rate for ReadExReq accesses
system.l2.ReadExReq_miss_rate::total         0.826979                       # miss rate for ReadExReq accesses
system.l2.ReadExReq_avg_miss_latency::.cpu.data 98289.961811                       # average ReadExReq miss latency
system.l2.ReadExReq_avg_miss_latency::total 98289.961811                       # average ReadExReq miss latency
system.l2.ReadExReq_mshr_misses::.cpu.data         3666                       # number of ReadExReq MSHR misses
system.l2.ReadExReq_mshr_misses::total           3666                       # number of ReadExReq MSHR misses
system.l2.ReadExReq_mshr_miss_latency::.cpu.data    287011000                       # number of ReadExReq MSHR miss cycles
system.l2.ReadExReq_mshr_miss_latency::total    287011000                       # number of ReadExReq MSHR miss cycles
system.l2.ReadExReq_mshr_miss_rate::.cpu.data     0.826979                       # mshr miss rate for ReadExReq accesses
system.l2.ReadExReq_mshr_miss_rate::total     0.826979                       # mshr miss rate for ReadExReq accesses
system.l2.ReadExReq_avg_mshr_miss_latency::.cpu.data 78289.961811                       # average ReadExReq mshr miss latency
system.l2.ReadExReq_avg_mshr_miss_latency::total 78289.961811                       # average ReadExReq mshr miss latency
system.l2.ReadCleanReq_hits::.cpu.inst             49                       # number of ReadCleanReq hits
system.l2.ReadCleanReq_hits::total                 49                       # number of ReadCleanReq hits
system.l2.ReadCleanReq_misses::.cpu.inst         1304                       # number of ReadCleanReq misses
system.l2.ReadCleanReq_misses::total             1304                       # number of ReadCleanReq misses
system.l2.ReadCleanReq_miss_latency::.cpu.inst    126302000                       # number of ReadCleanReq miss cycles
system.l2.ReadCleanReq_miss_latency::total    126302000                       # number of ReadCleanReq miss cycles
system.l2.ReadCleanReq_accesses::.cpu.inst         1353                       # number of ReadCleanReq accesses(hits+misses)
system.l2.ReadCleanReq_accesses::total           1353                       # number of ReadCleanReq accesses(hits+misses)
system.l2.ReadCleanReq_miss_rate::.cpu.inst     0.963784                       # miss rate for ReadCleanReq accesses
system.l2.ReadCleanReq_miss_rate::total      0.963784                       # miss rate for ReadCleanReq accesses
system.l2.ReadCleanReq_avg_miss_latency::.cpu.inst 96857.361963                       # average ReadCleanReq miss latency
system.l2.ReadCleanReq_avg_miss_latency::total 96857.361963                       # average ReadCleanReq miss latency
system.l2.ReadCleanReq_mshr_hits::.cpu.inst            1                       # number of ReadCleanReq MSHR hits
system.l2.ReadCleanReq_mshr_hits::total             1                       # number of ReadCleanReq MSHR hits
system.l2.ReadCleanReq_mshr_misses::.cpu.inst         1303                       # number of ReadCleanReq MSHR misses
system.l2.ReadCleanReq_mshr_misses::total         1303                       # number of ReadCleanReq MSHR misses
system.l2.ReadCleanReq_mshr_miss_latency::.cpu.inst    100163000                       # number of ReadCleanReq MSHR miss cycles
system.l2.ReadCleanReq_mshr_miss_latency::total    100163000                       # number of ReadCleanReq MSHR miss cycles
system.l2.ReadCleanReq_mshr_miss_rate::.cpu.inst     0.963045                       # mshr miss rate for ReadCleanReq accesses
system.l2.ReadCleanReq_mshr_miss_rate::total     0.963045                       # mshr miss rate for ReadCleanReq accesses
system.l2.ReadCleanReq_avg_mshr_miss_latency::.cpu.inst 76871.066769                       # average ReadCleanReq mshr miss latency
system.l2.ReadCleanReq_avg_mshr_miss_latency::total 76871.066769                       # average ReadCleanReq mshr miss latency
system.l2.ReadSharedReq_hits::.cpu.data           809                       # number of ReadSharedReq hits
system.l2.ReadSharedReq_hits::total               809                       # number of ReadSharedReq hits
system.l2.ReadSharedReq_misses::.cpu.data          526                       # number of ReadSharedReq misses
system.l2.ReadSharedReq_misses::total             526                       # number of ReadSharedReq misses
system.l2.ReadSharedReq_miss_latency::.cpu.data     52810000                       # number of ReadSharedReq miss cycles
system.l2.ReadSharedReq_miss_latency::total     52810000                       # number of ReadSharedReq miss cycles
system.l2.ReadSharedReq_accesses::.cpu.data         1335                       # number of ReadSharedReq accesses(hits+misses)
system.l2.ReadSharedReq_accesses::total          1335                       # number of ReadSharedReq accesses(hits+misses)
system.l2.ReadSharedReq_miss_rate::.cpu.data     0.394007                       # miss rate for ReadSharedReq accesses
system.l2.ReadSharedReq_miss_rate::total     0.394007                       # miss rate for ReadSharedReq accesses
system.l2.ReadSharedReq_avg_miss_latency::.cpu.data 100399.239544                       # average ReadSharedReq miss latency
system.l2.ReadSharedReq_avg_miss_latency::total 100399.239544                       # average ReadSharedReq miss latency
system.l2.ReadSharedReq_mshr_hits::.cpu.data            6                       # number of ReadSharedReq MSHR hits
system.l2.ReadSharedReq_mshr_hits::total            6                       # number of ReadSharedReq MSHR hits
system.l2.ReadSharedReq_mshr_misses::.cpu.data          520                       # number of ReadSharedReq MSHR misses
system.l2.ReadSharedReq_mshr_misses::total          520                       # number of ReadSharedReq MSHR misses
system.l2.ReadSharedReq_mshr_miss_latency::.cpu.data     41959000                       # number of ReadSharedReq MSHR miss cycles
system.l2.ReadSharedReq_mshr_miss_latency::total     41959000                       # number of ReadSharedReq MSHR miss cycles
system.l2.ReadSharedReq_mshr_miss_rate::.cpu.data     0.389513                       # mshr miss rate for ReadSharedReq accesses
system.l2.ReadSharedReq_mshr_miss_rate::total     0.389513                       # mshr miss rate for ReadSharedReq accesses
system.l2.ReadSharedReq_avg_mshr_miss_latency::.cpu.data 80690.384615                       # average ReadSharedReq mshr miss latency
system.l2.ReadSharedReq_avg_mshr_miss_latency::total 80690.384615                       # average ReadSharedReq mshr miss latency
system.l2.power_state.pwrStateResidencyTicks::UNDEFINED 118122260000                       # Cumulative time (in ticks) in various power states
system.l2.tags.tagsinuse                  5289.975682                       # Cycle average of tags in use
system.l2.tags.total_refs                        8770                       # Total number of references to valid blocks.
system.l2.tags.sampled_refs                      5489                       # Sample count of references to valid blocks.
system.l2.tags.avg_refs                      1.597741                       # Average number of references to valid blocks.
system.l2.tags.warmup_cycle                     87000                       # Cycle when the warmup percentage was hit.
system.l2.tags.occ_blocks::.cpu.inst      1296.661371                       # Average occupied blocks per requestor
system.l2.tags.occ_blocks::.cpu.data      3993.314311                       # Average occupied blocks per requestor
system.l2.tags.occ_percent::.cpu.inst        0.039571                       # Average percentage of cache occupancy
system.l2.tags.occ_percent::.cpu.data        0.121866                       # Average percentage of cache occupancy
system.l2.tags.occ_percent::total            0.161437                       # Average percentage of cache occupancy
system.l2.tags.occ_task_id_blocks::1024          5489                       # Occupied blocks per task id
system.l2.tags.age_task_id_blocks_1024::4         5489                       # Occupied blocks per task id
system.l2.tags.occ_task_id_percent::1024     0.167511                       # Percentage of cache occupancy per task id
system.l2.tags.tag_accesses                     75705                       # Number of tag accesses
system.l2.tags.data_accesses                    75705                       # Number of data accesses
system.l2.tags.power_state.pwrStateResidencyTicks::UNDEFINED 118122260000                       # Cumulative time (in ticks) in various power states
system.mem_ctrls.avgPriority_.cpu.inst::samples      1303.00                       # Average QoS priority value for accepted requests
system.mem_ctrls.avgPriority_.cpu.data::samples      4186.00                       # Average QoS priority value for accepted requests
system.mem_ctrls.priorityMinLatency      0.000000018750                       # per QoS priority minimum request to response latency (s)
system.mem_ctrls.priorityMaxLatency      0.000000576500                       # per QoS priority maximum request to response latency (s)
system.mem_ctrls.numReadWriteTurnArounds            0                       # Number of turnarounds from READ to WRITE
system.mem_ctrls.numWriteReadTurnArounds            0                       # Number of turnarounds from WRITE to READ
system.mem_ctrls.numStayReadState               41314                       # Number of times bus staying in READ state
system.mem_ctrls.numStayWriteState                  0                       # Number of times bus staying in WRITE state
system.mem_ctrls.readReqs                        5489                       # Number of read requests accepted
system.mem_ctrls.writeReqs                          0                       # Number of write requests accepted
system.mem_ctrls.readBursts                      5489                       # Number of controller read bursts, including those serviced by the write queue
system.mem_ctrls.writeBursts                        0                       # Number of controller write bursts, including those merged in the write queue
system.mem_ctrls.servicedByWrQ                      0                       # Number of controller read bursts serviced by the write queue
system.mem_ctrls.mergedWrBursts                     0                       # Number of controller write bursts merged with an existing one
system.mem_ctrls.neitherReadNorWriteReqs            0                       # Number of requests that are neither read nor write
system.mem_ctrls.avgRdQLen                       1.00                       # Average read queue length when enqueuing
system.mem_ctrls.avgWrQLen                       0.00                       # Average write queue length when enqueuing
system.mem_ctrls.numRdRetry                         0                       # Number of times read queue was full causing retry
system.mem_ctrls.numWrRetry                         0                       # Number of times write queue was full causing retry
system.mem_ctrls.readPktSize::0                     0                       # Read request sizes (log2)
system.mem_ctrls.readPktSize::1                     0                       # Read request sizes (log2)
system.mem_ctrls.readPktSize::2                     0                       # Read request sizes (log2)
system.mem_ctrls.readPktSize::3                     0                       # Read request sizes (log2)
system.mem_ctrls.readPktSize::4                     0                       # Read request sizes (log2)
system.mem_ctrls.readPktSize::5                     0                       # Read request sizes (log2)
system.mem_ctrls.readPktSize::6                  5489                       # Read request sizes (log2)
system.mem_ctrls.writePktSize::0                    0                       # Write request sizes (log2)
system.mem_ctrls.writePktSize::1                    0                       # Write request sizes (log2)
system.mem_ctrls.writePktSize::2                    0                       # Write request sizes (log2)
system.mem_ctrls.writePktSize::3                    0                       # Write request sizes (log2)
system.mem_ctrls.writePktSize::4                    0                       # Write request sizes (log2)
system.mem_ctrls.writePktSize::5                    0                       # Write request sizes (log2)
system.mem_ctrls.writePktSize::6                    0                       # Write request sizes (log2)
[...]
system.mem_ctrls.dram.bw_read::.cpu.data      2268023                       # Total read bandwidth from this memory (bytes/s)
system.mem_ctrls.dram.bw_read::total          2974003                       # Total read bandwidth from this memory (bytes/s)
system.mem_ctrls.dram.bw_inst_read::.cpu.inst       705980                       # Instruction read bandwidth from this memory (bytes/s)
system.mem_ctrls.dram.bw_inst_read::total       705980                       # Instruction read bandwidth from this memory (bytes/s)
system.mem_ctrls.dram.bw_total::.cpu.inst       705980                       # Total bandwidth to/from this memory (bytes/s)
system.mem_ctrls.dram.bw_total::.cpu.data      2268023                       # Total bandwidth to/from this memory (bytes/s)
system.mem_ctrls.dram.bw_total::total         2974003                       # Total bandwidth to/from this memory (bytes/s)
system.mem_ctrls.dram.readBursts                 5489                       # Number of DRAM read bursts
system.mem_ctrls.dram.writeBursts                   0                       # Number of DRAM write bursts
system.mem_ctrls.dram.perBankRdBursts::0          252                       # Per bank write bursts
system.mem_ctrls.dram.perBankRdBursts::1          274                       # Per bank write bursts
system.mem_ctrls.dram.perBankRdBursts::2          245                       # Per bank write bursts
system.mem_ctrls.dram.perBankRdBursts::3          403                       # Per bank write bursts
system.mem_ctrls.dram.perBankRdBursts::4          418                       # Per bank write bursts
system.mem_ctrls.dram.perBankRdBursts::5          373                       # Per bank write bursts
system.mem_ctrls.dram.perBankRdBursts::6          377                       # Per bank write bursts
system.mem_ctrls.dram.perBankRdBursts::7          400                       # Per bank write bursts
system.mem_ctrls.dram.perBankRdBursts::8          359                       # Per bank write bursts
system.mem_ctrls.dram.perBankRdBursts::9          291                       # Per bank write bursts
system.mem_ctrls.dram.perBankRdBursts::10          427                       # Per bank write bursts
system.mem_ctrls.dram.perBankRdBursts::11          288                       # Per bank write bursts
system.mem_ctrls.dram.perBankRdBursts::12          311                       # Per bank write bursts
system.mem_ctrls.dram.perBankRdBursts::13          339                       # Per bank write bursts
system.mem_ctrls.dram.perBankRdBursts::14          399                       # Per bank write bursts
system.mem_ctrls.dram.perBankRdBursts::15          333                       # Per bank write bursts
system.mem_ctrls.dram.perBankWrBursts::0            0                       # Per bank write bursts
system.mem_ctrls.dram.perBankWrBursts::1            0                       # Per bank write bursts
system.mem_ctrls.dram.perBankWrBursts::2            0                       # Per bank write bursts
system.mem_ctrls.dram.perBankWrBursts::3            0                       # Per bank write bursts
system.mem_ctrls.dram.perBankWrBursts::4            0                       # Per bank write bursts
system.mem_ctrls.dram.perBankWrBursts::5            0                       # Per bank write bursts
system.mem_ctrls.dram.perBankWrBursts::6            0                       # Per bank write bursts
system.mem_ctrls.dram.perBankWrBursts::7            0                       # Per bank write bursts
system.mem_ctrls.dram.perBankWrBursts::8            0                       # Per bank write bursts
system.mem_ctrls.dram.perBankWrBursts::9            0                       # Per bank write bursts
system.mem_ctrls.dram.perBankWrBursts::10            0                       # Per bank write bursts
system.mem_ctrls.dram.perBankWrBursts::11            0                       # Per bank write bursts
system.mem_ctrls.dram.perBankWrBursts::12            0                       # Per bank write bursts
system.mem_ctrls.dram.perBankWrBursts::13            0                       # Per bank write bursts
system.mem_ctrls.dram.perBankWrBursts::14            0                       # Per bank write bursts
system.mem_ctrls.dram.perBankWrBursts::15            0                       # Per bank write bursts
system.mem_ctrls.dram.totQLat                44501000                       # Total ticks spent queuing
system.mem_ctrls.dram.totBusLat              27445000                       # Total ticks spent in databus transfers
system.mem_ctrls.dram.totMemAccLat          147419750                       # Total ticks spent from burst creation until serviced by the DRAM
system.mem_ctrls.dram.avgQLat                 8107.31                       # Average queueing delay per DRAM burst
system.mem_ctrls.dram.avgBusLat               5000.00                       # Average bus latency per DRAM burst
system.mem_ctrls.dram.avgMemAccLat           26857.31                       # Average memory access latency per DRAM burst
system.mem_ctrls.dram.readRowHits                4003                       # Number of row buffer hits during reads
system.mem_ctrls.dram.writeRowHits                  0                       # Number of row buffer hits during writes
system.mem_ctrls.dram.readRowHitRate            72.93                       # Row buffer hit rate for reads
system.mem_ctrls.dram.writeRowHitRate             nan                       # Row buffer hit rate for writes
system.mem_ctrls.dram.bytesPerActivate::samples         1486                       # Bytes accessed per row activation
system.mem_ctrls.dram.bytesPerActivate::mean   236.403769                       # Bytes accessed per row activation
system.mem_ctrls.dram.bytesPerActivate::gmean   153.980108                       # Bytes accessed per row activation
system.mem_ctrls.dram.bytesPerActivate::stdev   266.741300                       # Bytes accessed per row activation
system.mem_ctrls.dram.bytesPerActivate::0-127          516     34.72%     34.72% # Bytes accessed per row activation
system.mem_ctrls.dram.bytesPerActivate::128-255          539     36.27%     71.00% # Bytes accessed per row activation
system.mem_ctrls.dram.bytesPerActivate::256-383          195     13.12%     84.12% # Bytes accessed per row activation
system.mem_ctrls.dram.bytesPerActivate::384-511           44      2.96%     87.08% # Bytes accessed per row activation
system.mem_ctrls.dram.bytesPerActivate::512-639           29      1.95%     89.03% # Bytes accessed per row activation
system.mem_ctrls.dram.bytesPerActivate::640-767           26      1.75%     90.78% # Bytes accessed per row activation
system.mem_ctrls.dram.bytesPerActivate::768-895           16      1.08%     91.86% # Bytes accessed per row activation
system.mem_ctrls.dram.bytesPerActivate::896-1023           22      1.48%     93.34% # Bytes accessed per row activation
system.mem_ctrls.dram.bytesPerActivate::1024-1151           99      6.66%    100.00% # Bytes accessed per row activation
system.mem_ctrls.dram.bytesPerActivate::total         1486                       # Bytes accessed per row activation
system.mem_ctrls.dram.bytesRead                351296                       # Total number of bytes read from DRAM
system.mem_ctrls.dram.bytesWritten                  0                       # Total number of bytes written to DRAM
system.mem_ctrls.dram.avgRdBW                2.974003                       # Average DRAM read bandwidth in MiBytes/s
system.mem_ctrls.dram.avgWrBW                       0                       # Average DRAM write bandwidth in MiBytes/s
system.mem_ctrls.dram.peakBW                 12800.00                       # Theoretical peak bandwidth in MiByte/s
system.mem_ctrls.dram.busUtil                    0.02                       # Data bus utilization in percentage
system.mem_ctrls.dram.busUtilRead                0.02                       # Data bus utilization in percentage for reads
system.mem_ctrls.dram.busUtilWrite               0.00                       # Data bus utilization in percentage for writes
system.mem_ctrls.dram.pageHitRate               72.93                       # Row buffer hit rate, read and write combined
system.mem_ctrls.dram.power_state.pwrStateResidencyTicks::UNDEFINED 118122260000                       # Cumulative time (in ticks) in various power states
system.mem_ctrls.dram.rank0.actEnergy         5390700                       # Energy for activate commands per rank (pJ)
system.mem_ctrls.dram.rank0.preEnergy         2865225                       # Energy for precharge commands per rank (pJ)
system.mem_ctrls.dram.rank0.readEnergy       19577880                       # Energy for read commands per rank (pJ)
system.mem_ctrls.dram.rank0.writeEnergy             0                       # Energy for write commands per rank (pJ)
system.mem_ctrls.dram.rank0.refreshEnergy 9324088800.000002                       # Energy for refresh commands per rank (pJ)
system.mem_ctrls.dram.rank0.actBackEnergy   2710470840                       # Energy for active background per rank (pJ)
system.mem_ctrls.dram.rank0.preBackEnergy  43076446080                       # Energy for precharge background per rank (pJ)
system.mem_ctrls.dram.rank0.actPowerDownEnergy            0                       # Energy for active power-down per rank (pJ)
system.mem_ctrls.dram.rank0.prePowerDownEnergy            0                       # Energy for precharge power-down per rank (pJ)
system.mem_ctrls.dram.rank0.selfRefreshEnergy            0                       # Energy for self refresh per rank (pJ)
system.mem_ctrls.dram.rank0.totalEnergy   55138839525                       # Total energy per rank (pJ)
system.mem_ctrls.dram.rank0.averagePower   466.794654                       # Core power per rank (mW)
system.mem_ctrls.dram.rank0.totalIdleTime            0                       # Total Idle time Per DRAM Rank
system.mem_ctrls.dram.rank0.pwrStateTime::IDLE 111963859250                       # Time in different power states
system.mem_ctrls.dram.rank0.pwrStateTime::REF   3944200000                       # Time in different power states
system.mem_ctrls.dram.rank0.pwrStateTime::SREF            0                       # Time in different power states
system.mem_ctrls.dram.rank0.pwrStateTime::PRE_PDN            0                       # Time in different power states
system.mem_ctrls.dram.rank0.pwrStateTime::ACT   2214200750                       # Time in different power states
system.mem_ctrls.dram.rank0.pwrStateTime::ACT_PDN            0                       # Time in different power states
system.mem_ctrls.dram.rank1.actEnergy         5219340                       # Energy for activate commands per rank (pJ)
system.mem_ctrls.dram.rank1.preEnergy         2774145                       # Energy for precharge commands per rank (pJ)
system.mem_ctrls.dram.rank1.readEnergy       19613580                       # Energy for read commands per rank (pJ)
system.mem_ctrls.dram.rank1.writeEnergy             0                       # Energy for write commands per rank (pJ)
system.mem_ctrls.dram.rank1.refreshEnergy 9324088800.000002                       # Energy for refresh commands per rank (pJ)
system.mem_ctrls.dram.rank1.actBackEnergy   2653629300                       # Energy for active background per rank (pJ)
system.mem_ctrls.dram.rank1.preBackEnergy  43124312640                       # Energy for precharge background per rank (pJ)
system.mem_ctrls.dram.rank1.actPowerDownEnergy            0                       # Energy for active power-down per rank (pJ)
system.mem_ctrls.dram.rank1.prePowerDownEnergy            0                       # Energy for precharge power-down per rank (pJ)
system.mem_ctrls.dram.rank1.selfRefreshEnergy            0                       # Energy for self refresh per rank (pJ)
system.mem_ctrls.dram.rank1.totalEnergy   55129637805                       # Total energy per rank (pJ)
system.mem_ctrls.dram.rank1.averagePower   466.716754                       # Core power per rank (mW)
system.mem_ctrls.dram.rank1.totalIdleTime            0                       # Total Idle time Per DRAM Rank
system.mem_ctrls.dram.rank1.pwrStateTime::IDLE 112088463500                       # Time in different power states
system.mem_ctrls.dram.rank1.pwrStateTime::REF   3944200000                       # Time in different power states
system.mem_ctrls.dram.rank1.pwrStateTime::SREF            0                       # Time in different power states
system.mem_ctrls.dram.rank1.pwrStateTime::PRE_PDN            0                       # Time in different power states
system.mem_ctrls.dram.rank1.pwrStateTime::ACT   2089596500                       # Time in different power states
system.mem_ctrls.dram.rank1.pwrStateTime::ACT_PDN            0                       # Time in different power states
system.mem_ctrls.power_state.pwrStateResidencyTicks::UNDEFINED 118122260000                       # Cumulative time (in ticks) in various power states
system.membus.trans_dist::ReadResp               1823                       # Transaction distribution
system.membus.trans_dist::ReadExReq              3666                       # Transaction distribution
system.membus.trans_dist::ReadExResp             3666                       # Transaction distribution
system.membus.trans_dist::ReadSharedReq          1823                       # Transaction distribution
system.membus.pkt_count_system.l2.mem_side_port::system.mem_ctrls.port        10978                       # Packet count per connected requestor and responder (bytes)
system.membus.pkt_count::total                  10978                       # Packet count per connected requestor and responder (bytes)
system.membus.pkt_size_system.l2.mem_side_port::system.mem_ctrls.port       351296                       # Cumulative packet size per connected requestor and responder (bytes)
system.membus.pkt_size::total                  351296                       # Cumulative packet size per connected requestor and responder (bytes)
system.membus.snoops                                0                       # Total snoops (count)
system.membus.snoopTraffic                          0                       # Total snoop traffic (bytes)
system.membus.snoop_fanout::samples              5489                       # Request fanout histogram
system.membus.snoop_fanout::mean                    0                       # Request fanout histogram
system.membus.snoop_fanout::stdev                   0                       # Request fanout histogram
system.membus.snoop_fanout::underflows              0      0.00%      0.00% # Request fanout histogram
system.membus.snoop_fanout::0                    5489    100.00%    100.00% # Request fanout histogram
system.membus.snoop_fanout::1                       0      0.00%    100.00% # Request fanout histogram
system.membus.snoop_fanout::overflows               0      0.00%    100.00% # Request fanout histogram
system.membus.snoop_fanout::min_value               0                       # Request fanout histogram
system.membus.snoop_fanout::max_value               0                       # Request fanout histogram
system.membus.snoop_fanout::total                5489                       # Request fanout histogram
system.membus.power_state.pwrStateResidencyTicks::UNDEFINED 118122260000                       # Cumulative time (in ticks) in various power states
system.membus.reqLayer0.occupancy             5489000                       # Layer occupancy (ticks)
system.membus.reqLayer0.utilization               0.0                       # Layer utilization (%)
system.membus.respLayer1.occupancy           29185500                       # Layer occupancy (ticks)
system.membus.respLayer1.utilization              0.0                       # Layer utilization (%)
system.tol2bus.trans_dist::ReadResp              2688                       # Transaction distribution
system.tol2bus.trans_dist::WritebackDirty         1382                       # Transaction distribution
system.tol2bus.trans_dist::WritebackClean            8                       # Transaction distribution
system.tol2bus.trans_dist::CleanEvict             581                       # Transaction distribution
system.tol2bus.trans_dist::ReadExReq             4433                       # Transaction distribution
system.tol2bus.trans_dist::ReadExResp            4433                       # Transaction distribution
system.tol2bus.trans_dist::ReadCleanReq          1353                       # Transaction distribution
system.tol2bus.trans_dist::ReadSharedReq         1335                       # Transaction distribution
system.tol2bus.pkt_count_system.cpu.icache.mem_side_port::system.l2.cpu_side_port         2714                       # Packet count per connected requestor and responder (bytes)
system.tol2bus.pkt_count_system.cpu.dcache.mem_side_port::system.l2.cpu_side_port        13499                       # Packet count per connected requestor and responder (bytes)
system.tol2bus.pkt_count::total                 16213                       # Packet count per connected requestor and responder (bytes)
system.tol2bus.pkt_size_system.cpu.icache.mem_side_port::system.l2.cpu_side_port        87104                       # Cumulative packet size per connected requestor and responder (bytes)
system.tol2bus.pkt_size_system.cpu.dcache.mem_side_port::system.l2.cpu_side_port       457600                       # Cumulative packet size per connected requestor and responder (bytes)
system.tol2bus.pkt_size::total                 544704                       # Cumulative packet size per connected requestor and responder (bytes)
system.tol2bus.snoops                               0                       # Total snoops (count)
system.tol2bus.snoopTraffic                         0                       # Total snoop traffic (bytes)
system.tol2bus.snoop_fanout::samples             7121                       # Request fanout histogram
system.tol2bus.snoop_fanout::mean            0.048308                       # Request fanout histogram
system.tol2bus.snoop_fanout::stdev           0.214431                       # Request fanout histogram
system.tol2bus.snoop_fanout::underflows             0      0.00%      0.00% # Request fanout histogram
system.tol2bus.snoop_fanout::0                   6777     95.17%     95.17% # Request fanout histogram
system.tol2bus.snoop_fanout::1                    344      4.83%    100.00% # Request fanout histogram
system.tol2bus.snoop_fanout::2                      0      0.00%    100.00% # Request fanout histogram
system.tol2bus.snoop_fanout::overflows              0      0.00%    100.00% # Request fanout histogram
system.tol2bus.snoop_fanout::min_value              0                       # Request fanout histogram
system.tol2bus.snoop_fanout::max_value              1                       # Request fanout histogram
system.tol2bus.snoop_fanout::total               7121                       # Request fanout histogram
system.tol2bus.power_state.pwrStateResidencyTicks::UNDEFINED 118122260000                       # Cumulative time (in ticks) in various power states
system.tol2bus.reqLayer0.occupancy           11872000                       # Layer occupancy (ticks)
system.tol2bus.reqLayer0.utilization              0.0                       # Layer utilization (%)
system.tol2bus.respLayer0.occupancy           4059999                       # Layer occupancy (ticks)
system.tol2bus.respLayer0.utilization             0.0                       # Layer utilization (%)
system.tol2bus.respLayer1.occupancy          17309994                       # Layer occupancy (ticks)
system.tol2bus.respLayer1.utilization             0.0                       # Layer utilization (%)
system.voltage_domain.voltage                       1                       # Voltage in Volts

---------- End Simulation Statistics   ----------
