
---------- Begin Simulation Statistics ----------
final_tick                               111680260000                       # Number of ticks from beginning of simulation (restored from checkpoints and never reset)
host_inst_rate                                 340486                       # Simulator instruction rate (inst/s)
host_mem_usage                                8532712                       # Number of bytes of host memory used
host_op_rate                                   372598                       # Simulator op (including micro ops) rate (op/s)
host_seconds                                   293.70                       # Real time elapsed on the host
host_tick_rate                              380255702                       # Simulator tick rate (ticks/s)
sim_freq                                 1000000000000                       # Frequency of simulated ticks
sim_insts                                   100000001                       # Number of instructions simulated
sim_ops                                     109431277                       # Number of ops (including micro ops) simulated
sim_seconds                                  0.111680                       # Number of seconds simulated
sim_ticks                                111680260000                       # Number of ticks simulated
system.cpu.committedInsts                   100000001                       # Number of instructions committed
system.cpu.committedOps                     109431277                       # Number of ops (including micro ops) committed
system.cpu.cpi                               1.116803                       # CPI: cycles per instruction
system.cpu.discardedOps                        376458                       # Number of ops (including micro ops) which were discarded before commit
system.cpu.idleCycles                         2829558                       # Total number of cycles that the object has spent stopped
system.cpu.ipc                               0.895413                       # IPC: instructions per cycle
system.cpu.numCycles                        111680260                       # number of cpu cycles simulated
system.cpu.numFetchSuspends                         0                       # Number of times Execute suspended instruction fetching
system.cpu.numWorkItemsCompleted                    0                       # number of work items this cpu completed
system.cpu.numWorkItemsStarted                      0                       # number of work items this cpu started
system.cpu.op_class_0::No_OpClass                   0      0.00%      0.00% # Class of committed instruction
system.cpu.op_class_0::IntAlu                72955010     66.67%     66.67% # Class of committed instruction
system.cpu.op_class_0::IntMult                 568364      0.52%     67.19% # Class of committed instruction
system.cpu.op_class_0::IntDiv                       0      0.00%     67.19% # Class of committed instruction
system.cpu.op_class_0::FloatAdd                     0      0.00%     67.19% # Class of committed instruction
system.cpu.op_class_0::FloatCmp                     0      0.00%     67.19% # Class of committed instruction
system.cpu.op_class_0::FloatCvt                     0      0.00%     67.19% # Class of committed instruction
system.cpu.op_class_0::FloatMult                    0      0.00%     67.19% # Class of committed instruction
system.cpu.op_class_0::FloatMultAcc                 0      0.00%     67.19% # Class of committed instruction
system.cpu.op_class_0::FloatDiv                     0      0.00%     67.19% # Class of committed instruction
system.cpu.op_class_0::FloatMisc                    0      0.00%     67.19% # Class of committed instruction
system.cpu.op_class_0::FloatSqrt                    0      0.00%     67.19% # Class of committed instruction
system.cpu.op_class_0::SimdAdd                 241336      0.22%     67.41% # Class of committed instruction
system.cpu.op_class_0::SimdAddAcc                   0      0.00%     67.41% # Class of committed instruction
system.cpu.op_class_0::SimdAlu                 154628      0.14%     67.55% # Class of committed instruction
system.cpu.op_class_0::SimdCmp                 120668      0.11%     67.66% # Class of committed instruction
system.cpu.op_class_0::SimdCvt                      0      0.00%     67.66% # Class of committed instruction
system.cpu.op_class_0::SimdMisc                 44543      0.04%     67.70% # Class of committed instruction
system.cpu.op_class_0::SimdMult                     0      0.00%     67.70% # Class of committed instruction
system.cpu.op_class_0::SimdMultAcc                  0      0.00%     67.70% # Class of committed instruction
system.cpu.op_class_0::SimdShift                    0      0.00%     67.70% # Class of committed instruction
system.cpu.op_class_0::SimdShiftAcc                 0      0.00%     67.70% # Class of committed instruction
system.cpu.op_class_0::SimdDiv                      0      0.00%     67.70% # Class of committed instruction
system.cpu.op_class_0::SimdSqrt                     0      0.00%     67.70% # Class of committed instruction
system.cpu.op_class_0::SimdFloatAdd                 0      0.00%     67.70% # Class of committed instruction
system.cpu.op_class_0::SimdFloatAlu                 0      0.00%     67.70% # Class of committed instruction
system.cpu.op_class_0::SimdFloatCmp                 0      0.00%     67.70% # Class of committed instruction
system.cpu.op_class_0::SimdFloatCvt                 0      0.00%     67.70% # Class of committed instruction
system.cpu.op_class_0::SimdFloatDiv                 0      0.00%     67.70% # Class of committed instruction
system.cpu.op_class_0::SimdFloatMisc           166417      0.15%     67.85% # Class of committed instruction
system.cpu.op_class_0::SimdFloatMult                0      0.00%     67.85% # Class of committed instruction
system.cpu.op_class_0::SimdFloatMultAcc             0      0.00%     67.85% # Class of committed instruction
system.cpu.op_class_0::SimdFloatSqrt                0      0.00%     67.85% # Class of committed instruction
system.cpu.op_class_0::SimdReduceAdd                0      0.00%     67.85% # Class of committed instruction
system.cpu.op_class_0::SimdReduceAlu                0      0.00%     67.85% # Class of committed instruction
system.cpu.op_class_0::SimdReduceCmp                0      0.00%     67.85% # Class of committed instruction
system.cpu.op_class_0::SimdFloatReduceAdd            0      0.00%     67.85% # Class of committed instruction
system.cpu.op_class_0::SimdFloatReduceCmp            0      0.00%     67.85% # Class of committed instruction
system.cpu.op_class_0::SimdAes                      0      0.00%     67.85% # Class of committed instruction
system.cpu.op_class_0::SimdAesMix                   0      0.00%     67.85% # Class of committed instruction
system.cpu.op_class_0::SimdSha1Hash                 0      0.00%     67.85% # Class of committed instruction
system.cpu.op_class_0::SimdSha1Hash2                0      0.00%     67.85% # Class of committed instruction
system.cpu.op_class_0::SimdSha256Hash               0      0.00%     67.85% # Class of committed instruction
system.cpu.op_class_0::SimdSha256Hash2              0      0.00%     67.85% # Class of committed instruction
system.cpu.op_class_0::SimdShaSigma2                0      0.00%     67.85% # Class of committed instruction
system.cpu.op_class_0::SimdShaSigma3                0      0.00%     67.85% # Class of committed instruction
system.cpu.op_class_0::SimdPredAlu                  0      0.00%     67.85% # Class of committed instruction
system.cpu.op_class_0::MemRead               20645992     18.87%     86.72% # Class of committed instruction
system.cpu.op_class_0::MemWrite              14534319     13.28%    100.00% # Class of committed instruction
system.cpu.op_class_0::FloatMemRead                 0      0.00%    100.00% # Class of committed instruction
system.cpu.op_class_0::FloatMemWrite                0      0.00%    100.00% # Class of committed instruction
system.cpu.op_class_0::IprAccess                    0      0.00%    100.00% # Class of committed instruction
system.cpu.op_class_0::InstPrefetch                 0      0.00%    100.00% # Class of committed instruction
system.cpu.op_class_0::total                109431277                       # Class of committed instruction
system.cpu.tickCycles                       108850702                       # Number of cycles that the object actually ticked
system.cpu.workload.numSyscalls                    87                       # Number of system calls
system.membus.snoop_filter.hit_multi_requests            0                       # Number of requests hitting in the snoop filter with multiple (>1) holders of the requested data.
system.membus.snoop_filter.hit_multi_snoops            0                       # Number of snoops hitting in the snoop filter with multiple (>1) holders of the requested data.
system.membus.snoop_filter.hit_single_requests         6522                       # Number of requests hitting in the snoop filter with a single holder of the requested data.
system.membus.snoop_filter.hit_single_snoops            0                       # Number of snoops hitting in the snoop filter with a single holder of the requested data.
system.membus.snoop_filter.tot_requests         46375                       # Total number of requests made to the snoop filter.
system.membus.snoop_filter.tot_snoops               0                       # Total number of snoops made to the snoop filter.
system.tol2bus.snoop_filter.hit_multi_requests           18                       # Number of requests hitting in the snoop filter with multiple (>1) holders of the requested data.
system.tol2bus.snoop_filter.hit_multi_snoops            4                       # Number of snoops hitting in the snoop filter with multiple (>1) holders of the requested data.
system.tol2bus.snoop_filter.hit_single_requests        44627                       # Number of requests hitting in the snoop filter with a single holder of the requested data.
system.tol2bus.snoop_filter.hit_single_snoops          564                       # Number of snoops hitting in the snoop filter with a single holder of the requested data.
system.tol2bus.snoop_filter.tot_requests        93869                       # Total number of requests made to the snoop filter.
system.tol2bus.snoop_filter.tot_snoops            568                       # Total number of snoops made to the snoop filter.
system.clk_domain.clock                          1000                       # Clock period in ticks
system.cpu.branchPred.lookups                20360188                       # Number of BP lookups
system.cpu.branchPred.condPredicted          16297422                       # Number of conditional branches predicted
system.cpu.branchPred.condIncorrect             53390                       # Number of conditional branches incorrect
system.cpu.branchPred.BTBLookups              8737452                       # Number of BTB lookups
system.cpu.branchPred.BTBHits                 8736064                       # Number of BTB hits
system.cpu.branchPred.BTBHitPct             99.984114                       # BTB Hit Percentage
system.cpu.branchPred.RASUsed                 1050576                       # Number of times the RAS was used to get a target.
system.cpu.branchPred.RASIncorrect                324                       # Number of incorrect RAS predictions.
system.cpu.branchPred.indirectLookups          434001                       # Number of indirect predictor lookups.
system.cpu.branchPred.indirectHits             300031                       # Number of indirect target hits.
system.cpu.branchPred.indirectMisses           133970                       # Number of indirect misses.
system.cpu.branchPred.indirectMispredicted         1042                       # Number of mispredicted indirect branches.
system.cpu.dcache.demand_hits::.cpu.data     35620258                       # number of demand (read+write) hits
system.cpu.dcache.demand_hits::total         35620258                       # number of demand (read+write) hits
system.cpu.dcache.overall_hits::.cpu.data     35623593                       # number of overall hits
system.cpu.dcache.overall_hits::total        35623593                       # number of overall hits
system.cpu.dcache.demand_misses::.cpu.data        65899                       # number of demand (read+write) misses
system.cpu.dcache.demand_misses::total          65899                       # number of demand (read+write) misses
system.cpu.dcache.overall_misses::.cpu.data        65925                       # number of overall misses
system.cpu.dcache.overall_misses::total         65925                       # number of overall misses
system.cpu.dcache.demand_miss_latency::.cpu.data   5582118000                       # number of demand (read+write) miss cycles
system.cpu.dcache.demand_miss_latency::total   5582118000                       # number of demand (read+write) miss cycles
system.cpu.dcache.overall_miss_latency::.cpu.data   5582118000                       # number of overall miss cycles
system.cpu.dcache.overall_miss_latency::total   5582118000                       # number of overall miss cycles
system.cpu.dcache.demand_accesses::.cpu.data     35686157                       # number of demand (read+write) accesses
system.cpu.dcache.demand_accesses::total     35686157                       # number of demand (read+write) accesses
system.cpu.dcache.overall_accesses::.cpu.data     35689518                       # number of overall (read+write) accesses
system.cpu.dcache.overall_accesses::total     35689518                       # number of overall (read+write) accesses
system.cpu.dcache.demand_miss_rate::.cpu.data     0.001847                       # miss rate for demand accesses
system.cpu.dcache.demand_miss_rate::total     0.001847                       # miss rate for demand accesses
system.cpu.dcache.overall_miss_rate::.cpu.data     0.001847                       # miss rate for overall accesses
system.cpu.dcache.overall_miss_rate::total     0.001847                       # miss rate for overall accesses
system.cpu.dcache.demand_avg_miss_latency::.cpu.data 84707.173098                       # average overall miss latency
system.cpu.dcache.demand_avg_miss_latency::total 84707.173098                       # average overall miss latency
system.cpu.dcache.overall_avg_miss_latency::.cpu.data 84673.765643                       # average overall miss latency
system.cpu.dcache.overall_avg_miss_latency::total 84673.765643                       # average overall miss latency
system.cpu.dcache.blocked_cycles::no_mshrs            0                       # number of cycles access was blocked
system.cpu.dcache.blocked_cycles::no_targets            0                       # number of cycles access was blocked
system.cpu.dcache.blocked::no_mshrs                 0                       # number of cycles access was blocked
system.cpu.dcache.blocked::no_targets               0                       # number of cycles access was blocked
system.cpu.dcache.avg_blocked_cycles::no_mshrs          nan                       # average number of cycles each access was blocked
system.cpu.dcache.avg_blocked_cycles::no_targets          nan                       # average number of cycles each access was blocked
system.cpu.dcache.writebacks::.writebacks        43966                       # number of writebacks
system.cpu.dcache.writebacks::total             43966                       # number of writebacks
system.cpu.dcache.demand_mshr_hits::.cpu.data        17201                       # number of demand (read+write) MSHR hits
system.cpu.dcache.demand_mshr_hits::total        17201                       # number of demand (read+write) MSHR hits
system.cpu.dcache.overall_mshr_hits::.cpu.data        17201                       # number of overall MSHR hits
system.cpu.dcache.overall_mshr_hits::total        17201                       # number of overall MSHR hits
system.cpu.dcache.demand_mshr_misses::.cpu.data        48698                       # number of demand (read+write) MSHR misses
system.cpu.dcache.demand_mshr_misses::total        48698                       # number of demand (read+write) MSHR misses
system.cpu.dcache.overall_mshr_misses::.cpu.data        48719                       # number of overall MSHR misses
system.cpu.dcache.overall_mshr_misses::total        48719                       # number of overall MSHR misses
system.cpu.dcache.demand_mshr_miss_latency::.cpu.data   4307005000                       # number of demand (read+write) MSHR miss cycles
system.cpu.dcache.demand_mshr_miss_latency::total   4307005000                       # number of demand (read+write) MSHR miss cycles
system.cpu.dcache.overall_mshr_miss_latency::.cpu.data   4308500000                       # number of overall MSHR miss cycles
system.cpu.dcache.overall_mshr_miss_latency::total   4308500000                       # number of overall MSHR miss cycles
system.cpu.dcache.demand_mshr_miss_rate::.cpu.data     0.001365                       # mshr miss rate for demand accesses
system.cpu.dcache.demand_mshr_miss_rate::total     0.001365                       # mshr miss rate for demand accesses
system.cpu.dcache.overall_mshr_miss_rate::.cpu.data     0.001365                       # mshr miss rate for overall accesses
system.cpu.dcache.overall_mshr_miss_rate::total     0.001365                       # mshr miss rate for overall accesses
system.cpu.dcache.demand_avg_mshr_miss_latency::.cpu.data 88443.159883                       # average overall mshr miss latency
system.cpu.dcache.demand_avg_mshr_miss_latency::total 88443.159883                       # average overall mshr miss latency
system.cpu.dcache.overall_avg_mshr_miss_latency::.cpu.data 88435.723229                       # average overall mshr miss latency
system.cpu.dcache.overall_avg_mshr_miss_latency::total 88435.723229                       # average overall mshr miss latency
system.cpu.dcache.replacements                  44623                       # number of replacements
system.cpu.dcache.ReadReq_hits::.cpu.data     21421320                       # number of ReadReq hits
system.cpu.dcache.ReadReq_hits::total        21421320                       # number of ReadReq hits
system.cpu.dcache.ReadReq_misses::.cpu.data        10569                       # number of ReadReq misses
system.cpu.dcache.ReadReq_misses::total         10569                       # number of ReadReq misses
system.cpu.dcache.ReadReq_miss_latency::.cpu.data    334721000                       # number of ReadReq miss cycles
system.cpu.dcache.ReadReq_miss_latency::total    334721000                       # number of ReadReq miss cycles
system.cpu.dcache.ReadReq_accesses::.cpu.data     21431889                       # number of ReadReq accesses(hits+misses)
system.cpu.dcache.ReadReq_accesses::total     21431889                       # number of ReadReq accesses(hits+misses)
system.cpu.dcache.ReadReq_miss_rate::.cpu.data     0.000493                       # miss rate for ReadReq accesses
system.cpu.dcache.ReadReq_miss_rate::total     0.000493                       # miss rate for ReadReq accesses
system.cpu.dcache.ReadReq_avg_miss_latency::.cpu.data 31670.072855                       # average ReadReq miss latency
system.cpu.dcache.ReadReq_avg_miss_latency::total 31670.072855                       # average ReadReq miss latency
system.cpu.dcache.ReadReq_mshr_hits::.cpu.data          682                       # number of ReadReq MSHR hits
system.cpu.dcache.ReadReq_mshr_hits::total          682                       # number of ReadReq MSHR hits
system.cpu.dcache.ReadReq_mshr_misses::.cpu.data         9887                       # number of ReadReq MSHR misses
system.cpu.dcache.ReadReq_mshr_misses::total         9887                       # number of ReadReq MSHR misses
system.cpu.dcache.ReadReq_mshr_miss_latency::.cpu.data    283731000                       # number of ReadReq MSHR miss cycles
system.cpu.dcache.ReadReq_mshr_miss_latency::total    283731000                       # number of ReadReq MSHR miss cycles
system.cpu.dcache.ReadReq_mshr_miss_rate::.cpu.data     0.000461                       # mshr miss rate for ReadReq accesses
system.cpu.dcache.ReadReq_mshr_miss_rate::total     0.000461                       # mshr miss rate for ReadReq accesses
system.cpu.dcache.ReadReq_avg_mshr_miss_latency::.cpu.data 28697.380399                       # average ReadReq mshr miss latency
system.cpu.dcache.ReadReq_avg_mshr_miss_latency::total 28697.380399                       # average ReadReq mshr miss latency
system.cpu.dcache.WriteReq_hits::.cpu.data     14198938                       # number of WriteReq hits
system.cpu.dcache.WriteReq_hits::total       14198938                       # number of WriteReq hits
system.cpu.dcache.WriteReq_misses::.cpu.data        55330                       # number of WriteReq misses
system.cpu.dcache.WriteReq_misses::total        55330                       # number of WriteReq misses
system.cpu.dcache.WriteReq_miss_latency::.cpu.data   5247397000                       # number of WriteReq miss cycles
system.cpu.dcache.WriteReq_miss_latency::total   5247397000                       # number of WriteReq miss cycles
system.cpu.dcache.WriteReq_accesses::.cpu.data     14254268                       # number of WriteReq accesses(hits+misses)
system.cpu.dcache.WriteReq_accesses::total     14254268                       # number of WriteReq accesses(hits+misses)
system.cpu.dcache.WriteReq_miss_rate::.cpu.data     0.003882                       # miss rate for WriteReq accesses
system.cpu.dcache.WriteReq_miss_rate::total     0.003882                       # miss rate for WriteReq accesses
system.cpu.dcache.WriteReq_avg_miss_latency::.cpu.data 94838.189048                       # average WriteReq miss latency
system.cpu.dcache.WriteReq_avg_miss_latency::total 94838.189048                       # average WriteReq miss latency
system.cpu.dcache.WriteReq_mshr_hits::.cpu.data        16519                       # number of WriteReq MSHR hits
system.cpu.dcache.WriteReq_mshr_hits::total        16519                       # number of WriteReq MSHR hits
system.cpu.dcache.WriteReq_mshr_misses::.cpu.data        38811                       # number of WriteReq MSHR misses
system.cpu.dcache.WriteReq_mshr_misses::total        38811                       # number of WriteReq MSHR misses
system.cpu.dcache.WriteReq_mshr_miss_latency::.cpu.data   4023274000                       # number of WriteReq MSHR miss cycles
system.cpu.dcache.WriteReq_mshr_miss_latency::total   4023274000                       # number of WriteReq MSHR miss cycles
system.cpu.dcache.WriteReq_mshr_miss_rate::.cpu.data     0.002723                       # mshr miss rate for WriteReq accesses
system.cpu.dcache.WriteReq_mshr_miss_rate::total     0.002723                       # mshr miss rate for WriteReq accesses
system.cpu.dcache.WriteReq_avg_mshr_miss_latency::.cpu.data 103663.239803                       # average WriteReq mshr miss latency
system.cpu.dcache.WriteReq_avg_mshr_miss_latency::total 103663.239803                       # average WriteReq mshr miss latency
system.cpu.dcache.SoftPFReq_hits::.cpu.data         3335                       # number of SoftPFReq hits
system.cpu.dcache.SoftPFReq_hits::total          3335                       # number of SoftPFReq hits
system.cpu.dcache.SoftPFReq_misses::.cpu.data           26                       # number of SoftPFReq misses
system.cpu.dcache.SoftPFReq_misses::total           26                       # number of SoftPFReq misses
system.cpu.dcache.SoftPFReq_accesses::.cpu.data         3361                       # number of SoftPFReq accesses(hits+misses)
system.cpu.dcache.SoftPFReq_accesses::total         3361                       # number of SoftPFReq accesses(hits+misses)
system.cpu.dcache.SoftPFReq_miss_rate::.cpu.data     0.007736                       # miss rate for SoftPFReq accesses
system.cpu.dcache.SoftPFReq_miss_rate::total     0.007736                       # miss rate for SoftPFReq accesses
system.cpu.dcache.SoftPFReq_mshr_misses::.cpu.data           21                       # number of SoftPFReq MSHR misses
system.cpu.dcache.SoftPFReq_mshr_misses::total           21                       # number of SoftPFReq MSHR misses
system.cpu.dcache.SoftPFReq_mshr_miss_latency::.cpu.data      1495000                       # number of SoftPFReq MSHR miss cycles
system.cpu.dcache.SoftPFReq_mshr_miss_latency::total      1495000                       # number of SoftPFReq MSHR miss cycles
system.cpu.dcache.SoftPFReq_mshr_miss_rate::.cpu.data     0.006248                       # mshr miss rate for SoftPFReq accesses
system.cpu.dcache.SoftPFReq_mshr_miss_rate::total     0.006248                       # mshr miss rate for SoftPFReq accesses
system.cpu.dcache.SoftPFReq_avg_mshr_miss_latency::.cpu.data 71190.476190                       # average SoftPFReq mshr miss latency
system.cpu.dcache.SoftPFReq_avg_mshr_miss_latency::total 71190.476190                       # average SoftPFReq mshr miss latency
system.cpu.dcache.LoadLockedReq_hits::.cpu.data        89080                       # number of LoadLockedReq hits
system.cpu.dcache.LoadLockedReq_hits::total        89080                       # number of LoadLockedReq hits
system.cpu.dcache.LoadLockedReq_accesses::.cpu.data        89080                       # number of LoadLockedReq accesses(hits+misses)
system.cpu.dcache.LoadLockedReq_accesses::total        89080                       # number of LoadLockedReq accesses(hits+misses)
system.cpu.dcache.StoreCondReq_hits::.cpu.data        89080                       # number of StoreCondReq hits
system.cpu.dcache.StoreCondReq_hits::total        89080                       # number of StoreCondReq hits
system.cpu.dcache.StoreCondReq_accesses::.cpu.data        89080                       # number of StoreCondReq accesses(hits+misses)
system.cpu.dcache.StoreCondReq_accesses::total        89080                       # number of StoreCondReq accesses(hits+misses)
system.cpu.dcache.power_state.pwrStateResidencyTicks::UNDEFINED 111680260000                       # Cumulative time (in ticks) in various power states
system.cpu.dcache.tags.tagsinuse          4045.586395                       # Cycle average of tags in use
system.cpu.dcache.tags.total_refs            35850472                       # Total number of references to valid blocks.
system.cpu.dcache.tags.sampled_refs             48719                       # Sample count of references to valid blocks.
system.cpu.dcache.tags.avg_refs            735.862230                       # Average number of references to valid blocks.
system.cpu.dcache.tags.warmup_cycle            223000                       # Cycle when the warmup percentage was hit.
system.cpu.dcache.tags.occ_blocks::.cpu.data  4045.586395                       # Average occupied blocks per requestor
system.cpu.dcache.tags.occ_percent::.cpu.data     0.987692                       # Average percentage of cache occupancy
system.cpu.dcache.tags.occ_percent::total     0.987692                       # Average percentage of cache occupancy
system.cpu.dcache.tags.occ_task_id_blocks::1024         4096                       # Occupied blocks per task id
system.cpu.dcache.tags.age_task_id_blocks_1024::0            1                       # Occupied blocks per task id
system.cpu.dcache.tags.age_task_id_blocks_1024::1           18                       # Occupied blocks per task id
system.cpu.dcache.tags.age_task_id_blocks_1024::2          244                       # Occupied blocks per task id
system.cpu.dcache.tags.age_task_id_blocks_1024::3         2467                       # Occupied blocks per task id
system.cpu.dcache.tags.age_task_id_blocks_1024::4         1366                       # Occupied blocks per task id
system.cpu.dcache.tags.occ_task_id_percent::1024            1                       # Percentage of cache occupancy per task id
system.cpu.dcache.tags.tag_accesses          71784075                       # Number of tag accesses
system.cpu.dcache.tags.data_accesses         71784075                       # Number of data accesses
system.cpu.dcache.tags.power_state.pwrStateResidencyTicks::UNDEFINED 111680260000                       # Cumulative time (in ticks) in various power states
system.cpu.dtb.instHits                             0                       # ITB inst hits
system.cpu.dtb.instMisses                           0                       # ITB inst misses
system.cpu.dtb.readHits                             0                       # DTB read hits
system.cpu.dtb.readMisses                           0                       # DTB read misses
system.cpu.dtb.writeHits                            0                       # DTB write hits
system.cpu.dtb.writeMisses                          0                       # DTB write misses
system.cpu.dtb.inserts                              0                       # Number of times an entry is inserted into the TLB
system.cpu.dtb.flushTlb                             0                       # Number of times complete TLB was flushed
system.cpu.dtb.flushTlbMva                          0                       # Number of times TLB was flushed by MVA
system.cpu.dtb.flushTlbMvaAsid                      0                       # Number of times TLB was flushed by MVA & ASID
system.cpu.dtb.flushTlbAsid                         0                       # Number of times TLB was flushed by ASID
system.cpu.dtb.flushedEntries                       0                       # Number of entries that have been flushed from TLB
system.cpu.dtb.alignFaults                          0                       # Number of TLB faults due to alignment restrictions
system.cpu.dtb.prefetchFaults                       0                       # Number of TLB faults due to prefetch
system.cpu.dtb.domainFaults                         0                       # Number of TLB faults due to domain restrictions
system.cpu.dtb.permsFaults                          0                       # Number of TLB faults due to permissions restrictions
system.cpu.dtb.readAccesses                         0                       # DTB read accesses
system.cpu.dtb.writeAccesses                        0                       # DTB write accesses
system.cpu.dtb.instAccesses                         0                       # ITB inst accesses
system.cpu.dtb.hits                                 0                       # Total TLB (inst and data) hits
system.cpu.dtb.misses                               0                       # Total TLB (inst and data) misses
system.cpu.dtb.accesses                             0                       # Total TLB (inst and data) accesses
system.cpu.dtb.stage2_mmu.stage2_tlb.instHits            0                       # ITB inst hits
system.cpu.dtb.stage2_mmu.stage2_tlb.instMisses            0                       # ITB inst misses
system.cpu.dtb.stage2_mmu.stage2_tlb.readHits            0                       # DTB read hits
system.cpu.dtb.stage2_mmu.stage2_tlb.readMisses            0                       # DTB read misses
system.cpu.dtb.stage2_mmu.stage2_tlb.writeHits            0                       # DTB write hits
system.cpu.dtb.stage2_mmu.stage2_tlb.writeMisses            0                       # DTB write misses
system.cpu.dtb.stage2_mmu.stage2_tlb.inserts            0                       # Number of times an entry is inserted into the TLB
system.cpu.dtb.stage2_mmu.stage2_tlb.flushTlb            0                       # Number of times complete TLB was flushed
system.cpu.dtb.stage2_mmu.stage2_tlb.flushTlbMva            0                       # Number of times TLB was flushed by MVA
system.cpu.dtb.stage2_mmu.stage2_tlb.flushTlbMvaAsid            0                       # Number of times TLB was flushed by MVA & ASID
system.cpu.dtb.stage2_mmu.stage2_tlb.flushTlbAsid            0                       # Number of times TLB was flushed by ASID
system.cpu.dtb.stage2_mmu.stage2_tlb.flushedEntries            0                       # Number of entries that have been flushed from TLB
system.cpu.dtb.stage2_mmu.stage2_tlb.alignFaults            0                       # Number of TLB faults due to alignment restrictions
system.cpu.dtb.stage2_mmu.stage2_tlb.prefetchFaults            0                       # Number of TLB faults due to prefetch
system.cpu.dtb.stage2_mmu.stage2_tlb.domainFaults            0                       # Number of TLB faults due to domain restrictions
system.cpu.dtb.stage2_mmu.stage2_tlb.permsFaults            0                       # Number of TLB faults due to permissions restrictions
system.cpu.dtb.stage2_mmu.stage2_tlb.readAccesses            0                       # DTB read accesses
system.cpu.dtb.stage2_mmu.stage2_tlb.writeAccesses            0                       # DTB write accesses
system.cpu.dtb.stage2_mmu.stage2_tlb.instAccesses            0                       # ITB inst accesses
system.cpu.dtb.stage2_mmu.stage2_tlb.hits            0                       # Total TLB (inst and data) hits
system.cpu.dtb.stage2_mmu.stage2_tlb.misses            0                       # Total TLB (inst and data) misses
system.cpu.dtb.stage2_mmu.stage2_tlb.accesses            0                       # Total TLB (inst and data) accesses
system.cpu.dtb.stage2_mmu.stage2_tlb.walker.walks            0                       # Table walker walks requested
system.cpu.dtb.stage2_mmu.stage2_tlb.walker.requestOrigin_Requested::Data            0                       # Table walker requests started/completed, data/inst
system.cpu.dtb.stage2_mmu.stage2_tlb.walker.requestOrigin_Requested::Inst            0                       # Table walker requests started/completed, data/inst
system.cpu.dtb.stage2_mmu.stage2_tlb.walker.requestOrigin_Requested::total            0                       # Table walker requests started/completed, data/inst
system.cpu.dtb.stage2_mmu.stage2_tlb.walker.requestOrigin_Completed::Data            0                       # Table walker requests started/completed, data/inst
system.cpu.dtb.stage2_mmu.stage2_tlb.walker.requestOrigin_Completed::Inst            0                       # Table walker requests started/completed, data/inst
system.cpu.dtb.stage2_mmu.stage2_tlb.walker.requestOrigin_Completed::total            0                       # Table walker requests started/completed, data/inst
system.cpu.dtb.stage2_mmu.stage2_tlb.walker.requestOrigin::total            0                       # Table walker requests started/completed, data/inst
system.cpu.dtb.stage2_mmu.stage2_tlb.walker.power_state.pwrStateResidencyTicks::UNDEFINED 111680260000                       # Cumulative time (in ticks) in various power states
system.cpu.dtb.walker.walks                         0                       # Table walker walks requested
system.cpu.dtb.walker.requestOrigin_Requested::Data            0                       # Table walker requests started/completed, data/inst
system.cpu.dtb.walker.requestOrigin_Requested::Inst            0                       # Table walker requests started/completed, data/inst
system.cpu.dtb.walker.requestOrigin_Requested::total            0                       # Table walker requests started/completed, data/inst
system.cpu.dtb.walker.requestOrigin_Completed::Data            0                       # Table walker requests started/completed, data/inst
system.cpu.dtb.walker.requestOrigin_Completed::Inst            0                       # Table walker requests started/completed, data/inst
system.cpu.dtb.walker.requestOrigin_Completed::total            0                       # Table walker requests started/completed, data/inst
system.cpu.dtb.walker.requestOrigin::total            0                       # Table walker requests started/completed, data/inst
system.cpu.dtb.walker.power_state.pwrStateResidencyTicks::UNDEFINED 111680260000                       # Cumulative time (in ticks) in various power states
system.cpu.fetch2.intInstructions            49238609                       # Number of integer instructions successfully decoded
system.cpu.fetch2.fpInstructions                    0                       # Number of floating point instructions successfully decoded
system.cpu.fetch2.vecInstructions                   0                       # Number of SIMD instructions successfully decoded
system.cpu.fetch2.loadInstructions           17106511                       # Number of memory load instructions successfully decoded
system.cpu.fetch2.storeInstructions           9764002                       # Number of memory store instructions successfully decoded
system.cpu.fetch2.amoInstructions                   0                       # Number of memory atomic instructions successfully decoded
system.cpu.icache.demand_hits::.cpu.inst     28361619                       # number of demand (read+write) hits
system.cpu.icache.demand_hits::total         28361619                       # number of demand (read+write) hits
system.cpu.icache.overall_hits::.cpu.inst     28361619                       # number of overall hits
system.cpu.icache.overall_hits::total        28361619                       # number of overall hits
system.cpu.icache.demand_misses::.cpu.inst          527                       # number of demand (read+write) misses
system.cpu.icache.demand_misses::total            527                       # number of demand (read+write) misses
system.cpu.icache.overall_misses::.cpu.inst          527                       # number of overall misses
system.cpu.icache.overall_misses::total           527                       # number of overall misses
system.cpu.icache.demand_miss_latency::.cpu.inst     53389000                       # number of demand (read+write) miss cycles
system.cpu.icache.demand_miss_latency::total     53389000                       # number of demand (read+write) miss cycles
system.cpu.icache.overall_miss_latency::.cpu.inst     53389000                       # number of overall miss cycles
system.cpu.icache.overall_miss_latency::total     53389000                       # number of overall miss cycles
system.cpu.icache.demand_accesses::.cpu.inst     28362146                       # number of demand (read+write) accesses
system.cpu.icache.demand_accesses::total     28362146                       # number of demand (read+write) accesses
system.cpu.icache.overall_accesses::.cpu.inst     28362146                       # number of overall (read+write) accesses
system.cpu.icache.overall_accesses::total     28362146                       # number of overall (read+write) accesses
system.cpu.icache.demand_miss_rate::.cpu.inst     0.000019                       # miss rate for demand accesses
system.cpu.icache.demand_miss_rate::total     0.000019                       # miss rate for demand accesses
system.cpu.icache.overall_miss_rate::.cpu.inst     0.000019                       # miss rate for overall accesses
system.cpu.icache.overall_miss_rate::total     0.000019                       # miss rate for overall accesses
system.cpu.icache.demand_avg_miss_latency::.cpu.inst 101307.400380                       # average overall miss latency
system.cpu.icache.demand_avg_miss_latency::total 101307.400380                       # average overall miss latency
system.cpu.icache.overall_avg_miss_latency::.cpu.inst 101307.400380                       # average overall miss latency
system.cpu.icache.overall_avg_miss_latency::total 101307.400380                       # average overall miss latency
system.cpu.icache.blocked_cycles::no_mshrs            0                       # number of cycles access was blocked
system.cpu.icache.blocked_cycles::no_targets            0                       # number of cycles access was blocked
system.cpu.icache.blocked::no_mshrs                 0                       # number of cycles access was blocked
system.cpu.icache.blocked::no_targets               0                       # number of cycles access was blocked
system.cpu.icache.avg_blocked_cycles::no_mshrs          nan                       # average number of cycles each access was blocked
system.cpu.icache.avg_blocked_cycles::no_targets          nan                       # average number of cycles each access was blocked
system.cpu.icache.demand_mshr_misses::.cpu.inst          527                       # number of demand (read+write) MSHR misses
system.cpu.icache.demand_mshr_misses::total          527                       # number of demand (read+write) MSHR misses
system.cpu.icache.overall_mshr_misses::.cpu.inst          527                       # number of overall MSHR misses
system.cpu.icache.overall_mshr_misses::total          527                       # number of overall MSHR misses
system.cpu.icache.demand_mshr_miss_latency::.cpu.inst     52335000                       # number of demand (read+write) MSHR miss cycles
system.cpu.icache.demand_mshr_miss_latency::total     52335000                       # number of demand (read+write) MSHR miss cycles
system.cpu.icache.overall_mshr_miss_latency::.cpu.inst     52335000                       # number of overall MSHR miss cycles
system.cpu.icache.overall_mshr_miss_latency::total     52335000                       # number of overall MSHR miss cycles
system.cpu.icache.demand_mshr_miss_rate::.cpu.inst     0.000019                       # mshr miss rate for demand accesses
system.cpu.icache.demand_mshr_miss_rate::total     0.000019                       # mshr miss rate for demand accesses
system.cpu.icache.overall_mshr_miss_rate::.cpu.inst     0.000019                       # mshr miss rate for overall accesses
system.cpu.icache.overall_mshr_miss_rate::total     0.000019                       # mshr miss rate for overall accesses
system.cpu.icache.demand_avg_mshr_miss_latency::.cpu.inst 99307.400380                       # average overall mshr miss latency
system.cpu.icache.demand_avg_mshr_miss_latency::total 99307.400380                       # average overall mshr miss latency
system.cpu.icache.overall_avg_mshr_miss_latency::.cpu.inst 99307.400380                       # average overall mshr miss latency
system.cpu.icache.overall_avg_mshr_miss_latency::total 99307.400380                       # average overall mshr miss latency
system.cpu.icache.replacements                      0                       # number of replacements
system.cpu.icache.ReadReq_hits::.cpu.inst     28361619                       # number of ReadReq hits
system.cpu.icache.ReadReq_hits::total        28361619                       # number of ReadReq hits
system.cpu.icache.ReadReq_misses::.cpu.inst          527                       # number of ReadReq misses
system.cpu.icache.ReadReq_misses::total           527                       # number of ReadReq misses
system.cpu.icache.ReadReq_miss_latency::.cpu.inst     53389000                       # number of ReadReq miss cycles
system.cpu.icache.ReadReq_miss_latency::total     53389000                       # number of ReadReq miss cycles
system.cpu.icache.ReadReq_accesses::.cpu.inst     28362146                       # number of ReadReq accesses(hits+misses)
system.cpu.icache.ReadReq_accesses::total     28362146                       # number of ReadReq accesses(hits+misses)
system.cpu.icache.ReadReq_miss_rate::.cpu.inst     0.000019                       # miss rate for ReadReq accesses
system.cpu.icache.ReadReq_miss_rate::total     0.000019                       # miss rate for ReadReq accesses
system.cpu.icache.ReadReq_avg_miss_latency::.cpu.inst 101307.400380                       # average ReadReq miss latency
system.cpu.icache.ReadReq_avg_miss_latency::total 101307.400380                       # average ReadReq miss latency
system.cpu.icache.ReadReq_mshr_misses::.cpu.inst          527                       # number of ReadReq MSHR misses
system.cpu.icache.ReadReq_mshr_misses::total          527                       # number of ReadReq MSHR misses
system.cpu.icache.ReadReq_mshr_miss_latency::.cpu.inst     52335000                       # number of ReadReq MSHR miss cycles
system.cpu.icache.ReadReq_mshr_miss_latency::total     52335000                       # number of ReadReq MSHR miss cycles
system.cpu.icache.ReadReq_mshr_miss_rate::.cpu.inst     0.000019                       # mshr miss rate for ReadReq accesses
system.cpu.icache.ReadReq_mshr_miss_rate::total     0.000019                       # mshr miss rate for ReadReq accesses
system.cpu.icache.ReadReq_avg_mshr_miss_latency::.cpu.inst 99307.400380                       # average ReadReq mshr miss latency
system.cpu.icache.ReadReq_avg_mshr_miss_latency::total 99307.400380                       # average ReadReq mshr miss latency
system.cpu.icache.power_state.pwrStateResidencyTicks::UNDEFINED 111680260000                       # Cumulative time (in ticks) in various power states
system.cpu.icache.tags.tagsinuse           525.879439                       # Cycle average of tags in use
system.cpu.icache.tags.total_refs            28362146                       # Total number of references to valid blocks.
system.cpu.icache.tags.sampled_refs               527                       # Sample count of references to valid blocks.
system.cpu.icache.tags.avg_refs          53818.113852                       # Average number of references to valid blocks.
system.cpu.icache.tags.warmup_cycle            108000                       # Cycle when the warmup percentage was hit.
system.cpu.icache.tags.occ_blocks::.cpu.inst   525.879439                       # Average occupied blocks per requestor
system.cpu.icache.tags.occ_percent::.cpu.inst     0.128389                       # Average percentage of cache occupancy
system.cpu.icache.tags.occ_percent::total     0.128389                       # Average percentage of cache occupancy
system.cpu.icache.tags.occ_task_id_blocks::1024          527                       # Occupied blocks per task id
system.cpu.icache.tags.age_task_id_blocks_1024::4          527                       # Occupied blocks per task id
system.cpu.icache.tags.occ_task_id_percent::1024     0.128662                       # Percentage of cache occupancy per task id
system.cpu.icache.tags.tag_accesses          56724819                       # Number of tag accesses
system.cpu.icache.tags.data_accesses         56724819                       # Number of data accesses
system.cpu.icache.tags.power_state.pwrStateResidencyTicks::UNDEFINED 111680260000                       # Cumulative time (in ticks) in various power states
system.cpu.itb.instHits                             0                       # ITB inst hits
system.cpu.itb.instMisses                           0                       # ITB inst misses
system.cpu.itb.readHits                             0                       # DTB read hits
system.cpu.itb.readMisses                           0                       # DTB read misses
system.cpu.itb.writeHits                            0                       # DTB write hits
system.cpu.itb.writeMisses                          0                       # DTB write misses
system.cpu.itb.inserts                              0                       # Number of times an entry is inserted into the TLB
system.cpu.itb.flushTlb                             0                       # Number of times complete TLB was flushed
system.cpu.itb.flushTlbMva                          0                       # Number of times TLB was flushed by MVA
system.cpu.itb.flushTlbMvaAsid                      0                       # Number of times TLB was flushed by MVA & ASID
system.cpu.itb.flushTlbAsid                         0                       # Number of times TLB was flushed by ASID
system.cpu.itb.flushedEntries                       0                       # Number of entries that have been flushed from TLB
system.cpu.itb.alignFaults                          0                       # Number of TLB faults due to alignment restrictions
system.cpu.itb.prefetchFaults                       0                       # Number of TLB faults due to prefetch
system.cpu.itb.domainFaults                         0                       # Number of TLB faults due to domain restrictions
system.cpu.itb.permsFaults                          0                       # Number of TLB faults due to permissions restrictions
system.cpu.itb.readAccesses                         0                       # DTB read accesses
system.cpu.itb.writeAccesses                        0                       # DTB write accesses
system.cpu.itb.instAccesses                         0                       # ITB inst accesses
system.cpu.itb.hits                                 0                       # Total TLB (inst and data) hits
system.cpu.itb.misses                               0                       # Total TLB (inst and data) misses
system.cpu.itb.accesses                             0                       # Total TLB (inst and data) accesses
system.cpu.itb.stage2_mmu.stage2_tlb.instHits            0                       # ITB inst hits
system.cpu.itb.stage2_mmu.stage2_tlb.instMisses            0                       # ITB inst misses
system.cpu.itb.stage2_mmu.stage2_tlb.readHits            0                       # DTB read hits
system.cpu.itb.stage2_mmu.stage2_tlb.readMisses            0                       # DTB read misses
system.cpu.itb.stage2_mmu.stage2_tlb.writeHits            0                       # DTB write hits
system.cpu.itb.stage2_mmu.stage2_tlb.writeMisses            0                       # DTB write misses
system.cpu.itb.stage2_mmu.stage2_tlb.inserts            0                       # Number of times an entry is inserted into the TLB
system.cpu.itb.stage2_mmu.stage2_tlb.flushTlb            0                       # Number of times complete TLB was flushed
system.cpu.itb.stage2_mmu.stage2_tlb.flushTlbMva            0                       # Number of times TLB was flushed by MVA
system.cpu.itb.stage2_mmu.stage2_tlb.flushTlbMvaAsid            0                       # Number of times TLB was flushed by MVA & ASID
system.cpu.itb.stage2_mmu.stage2_tlb.flushTlbAsid            0                       # Number of times TLB was flushed by ASID
system.cpu.itb.stage2_mmu.stage2_tlb.flushedEntries            0                       # Number of entries that have been flushed from TLB
system.cpu.itb.stage2_mmu.stage2_tlb.alignFaults            0                       # Number of TLB faults due to alignment restrictions
system.cpu.itb.stage2_mmu.stage2_tlb.prefetchFaults            0                       # Number of TLB faults due to prefetch
system.cpu.itb.stage2_mmu.stage2_tlb.domainFaults            0                       # Number of TLB faults due to domain restrictions
system.cpu.itb.stage2_mmu.stage2_tlb.permsFaults            0                       # Number of TLB faults due to permissions restrictions
system.cpu.itb.stage2_mmu.stage2_tlb.readAccesses            0                       # DTB read accesses
system.cpu.itb.stage2_mmu.stage2_tlb.writeAccesses            0                       # DTB write accesses
system.cpu.itb.stage2_mmu.stage2_tlb.instAccesses            0                       # ITB inst accesses
system.cpu.itb.stage2_mmu.stage2_tlb.hits            0                       # Total TLB (inst and data) hits
system.cpu.itb.stage2_mmu.stage2_tlb.misses            0                       # Total TLB (inst and data) misses
system.cpu.itb.stage2_mmu.stage2_tlb.accesses            0                       # Total TLB (inst and data) accesses
system.cpu.itb.stage2_mmu.stage2_tlb.walker.walks            0                       # Table walker walks requested
system.cpu.itb.stage2_mmu.stage2_tlb.walker.requestOrigin_Requested::Data            0                       # Table walker requests started/completed, data/inst
system.cpu.itb.stage2_mmu.stage2_tlb.walker.requestOrigin_Requested::Inst            0                       # Table walker requests started/completed, data/inst
system.cpu.itb.stage2_mmu.stage2_tlb.walker.requestOrigin_Requested::total            0                       # Table walker requests started/completed, data/inst
system.cpu.itb.stage2_mmu.stage2_tlb.walker.requestOrigin_Completed::Data            0                       # Table walker requests started/completed, data/inst
system.cpu.itb.stage2_mmu.stage2_tlb.walker.requestOrigin_Completed::Inst            0                       # Table walker requests started/completed, data/inst
system.cpu.itb.stage2_mmu.stage2_tlb.walker.requestOrigin_Completed::total            0                       # Table walker requests started/completed, data/inst
system.cpu.itb.stage2_mmu.stage2_tlb.walker.requestOrigin::total            0                       # Table walker requests started/completed, data/inst
system.cpu.itb.stage2_mmu.stage2_tlb.walker.power_state.pwrStateResidencyTicks::UNDEFINED 111680260000                       # Cumulative time (in ticks) in various power states
system.cpu.itb.walker.walks                         0                       # Table walker walks requested
system.cpu.itb.walker.requestOrigin_Requested::Data            0                       # Table walker requests started/completed, data/inst
system.cpu.itb.walker.requestOrigin_Requested::Inst            0                       # Table walker requests started/completed, data/inst
system.cpu.itb.walker.requestOrigin_Requested::total            0                       # Table walker requests started/completed, data/inst
system.cpu.itb.walker.requestOrigin_Completed::Data            0                       # Table walker requests started/completed, data/inst
system.cpu.itb.walker.requestOrigin_Completed::Inst            0                       # Table walker requests started/completed, data/inst
system.cpu.itb.walker.requestOrigin_Completed::total            0                       # Table walker requests started/completed, data/inst
system.cpu.itb.walker.requestOrigin::total            0                       # Table walker requests started/completed, data/inst
system.cpu.itb.walker.power_state.pwrStateResidencyTicks::UNDEFINED 111680260000                       # Cumulative time (in ticks) in various power states
system.cpu.power_state.pwrStateResidencyTicks::ON 111680260000                       # Cumulative time (in ticks) in various power states
system.cpu.thread_0.numInsts                100000001                       # Number of Instructions committed
system.cpu.thread_0.numOps                  109431277                       # Number of Ops committed
system.cpu.thread_0.numMemRefs                      0                       # Number of Memory References
system.cpu_clk_domain.clock                      1000                       # Clock period in ticks
system.cpu_voltage_domain.voltage                   1                       # Voltage in Volts
system.l2.demand_hits::.cpu.inst                    5                       # number of demand (read+write) hits
system.l2.demand_hits::.cpu.data                 9381                       # number of demand (read+write) hits
system.l2.demand_hits::total                     9386                       # number of demand (read+write) hits
system.l2.overall_hits::.cpu.inst                   5                       # number of overall hits
system.l2.overall_hits::.cpu.data                9381                       # number of overall hits
system.l2.overall_hits::total                    9386                       # number of overall hits
system.l2.demand_misses::.cpu.inst                522                       # number of demand (read+write) misses
system.l2.demand_misses::.cpu.data              39338                       # number of demand (read+write) misses
system.l2.demand_misses::total                  39860                       # number of demand (read+write) misses
system.l2.overall_misses::.cpu.inst               522                       # number of overall misses
system.l2.overall_misses::.cpu.data             39338                       # number of overall misses
system.l2.overall_misses::total                 39860                       # number of overall misses
system.l2.demand_miss_latency::.cpu.inst     50638000                       # number of demand (read+write) miss cycles
system.l2.demand_miss_latency::.cpu.data   3965312000                       # number of demand (read+write) miss cycles
system.l2.demand_miss_latency::total       4015950000                       # number of demand (read+write) miss cycles
system.l2.overall_miss_latency::.cpu.inst     50638000                       # number of overall miss cycles
system.l2.overall_miss_latency::.cpu.data   3965312000                       # number of overall miss cycles
system.l2.overall_miss_latency::total      4015950000                       # number of overall miss cycles
system.l2.demand_accesses::.cpu.inst              527                       # number of demand (read+write) accesses
system.l2.demand_accesses::.cpu.data            48719                       # number of demand (read+write) accesses
system.l2.demand_accesses::total                49246                       # number of demand (read+write) accesses
system.l2.overall_accesses::.cpu.inst             527                       # number of overall (read+write) accesses
system.l2.overall_accesses::.cpu.data           48719                       # number of overall (read+write) accesses
system.l2.overall_accesses::total               49246                       # number of overall (read+write) accesses
system.l2.demand_miss_rate::.cpu.inst        0.990512                       # miss rate for demand accesses
system.l2.demand_miss_rate::.cpu.data        0.807447                       # miss rate for demand accesses
system.l2.demand_miss_rate::total            0.809406                       # miss rate for demand accesses
system.l2.overall_miss_rate::.cpu.inst       0.990512                       # miss rate for overall accesses
system.l2.overall_miss_rate::.cpu.data       0.807447                       # miss rate for overall accesses
system.l2.overall_miss_rate::total           0.809406                       # miss rate for overall accesses
system.l2.demand_avg_miss_latency::.cpu.inst 97007.662835                       # average overall miss latency
system.l2.demand_avg_miss_latency::.cpu.data 100801.057502                       # average overall miss latency
system.l2.demand_avg_miss_latency::total 100751.379829                       # average overall miss latency
system.l2.overall_avg_miss_latency::.cpu.inst 97007.662835                       # average overall miss latency
system.l2.overall_avg_miss_latency::.cpu.data 100801.057502                       # average overall miss latency
system.l2.overall_avg_miss_latency::total 100751.379829                       # average overall miss latency
system.l2.blocked_cycles::no_mshrs                  0                       # number of cycles access was blocked
system.l2.blocked_cycles::no_targets                0                       # number of cycles access was blocked
system.l2.blocked::no_mshrs                         0                       # number of cycles access was blocked
system.l2.blocked::no_targets                       0                       # number of cycles access was blocked
system.l2.avg_blocked_cycles::no_mshrs            nan                       # average number of cycles each access was blocked
system.l2.avg_blocked_cycles::no_targets          nan                       # average number of cycles each access was blocked
system.l2.writebacks::.writebacks                6457                       # number of writebacks
system.l2.writebacks::total                      6457                       # number of writebacks
system.l2.demand_mshr_hits::.cpu.inst               1                       # number of demand (read+write) MSHR hits
system.l2.demand_mshr_hits::.cpu.data               5                       # number of demand (read+write) MSHR hits
system.l2.demand_mshr_hits::total                   6                       # number of demand (read+write) MSHR hits
system.l2.overall_mshr_hits::.cpu.inst              1                       # number of overall MSHR hits
system.l2.overall_mshr_hits::.cpu.data              5                       # number of overall MSHR hits
system.l2.overall_mshr_hits::total                  6                       # number of overall MSHR hits
system.l2.demand_mshr_misses::.cpu.inst           521                       # number of demand (read+write) MSHR misses
system.l2.demand_mshr_misses::.cpu.data         39333                       # number of demand (read+write) MSHR misses
system.l2.demand_mshr_misses::total             39854                       # number of demand (read+write) MSHR misses
system.l2.overall_mshr_misses::.cpu.inst          521                       # number of overall MSHR misses
system.l2.overall_mshr_misses::.cpu.data        39333                       # number of overall MSHR misses
system.l2.overall_mshr_misses::total            39854                       # number of overall MSHR misses
system.l2.demand_mshr_miss_latency::.cpu.inst     40138000                       # number of demand (read+write) MSHR miss cycles
system.l2.demand_mshr_miss_latency::.cpu.data   3178042000                       # number of demand (read+write) MSHR miss cycles
system.l2.demand_mshr_miss_latency::total   3218180000                       # number of demand (read+write) MSHR miss cycles
system.l2.overall_mshr_miss_latency::.cpu.inst     40138000                       # number of overall MSHR miss cycles
system.l2.overall_mshr_miss_latency::.cpu.data   3178042000                       # number of overall MSHR miss cycles
system.l2.overall_mshr_miss_latency::total   3218180000                       # number of overall MSHR miss cycles
system.l2.demand_mshr_miss_rate::.cpu.inst     0.988615                       # mshr miss rate for demand accesses
system.l2.demand_mshr_miss_rate::.cpu.data     0.807344                       # mshr miss rate for demand accesses
system.l2.demand_mshr_miss_rate::total       0.809284                       # mshr miss rate for demand accesses
system.l2.overall_mshr_miss_rate::.cpu.inst     0.988615                       # mshr miss rate for overall accesses
system.l2.overall_mshr_miss_rate::.cpu.data     0.807344                       # mshr miss rate for overall accesses
system.l2.overall_mshr_miss_rate::total      0.809284                       # mshr miss rate for overall accesses
system.l2.demand_avg_mshr_miss_latency::.cpu.inst 77040.307102                       # average overall mshr miss latency
system.l2.demand_avg_mshr_miss_latency::.cpu.data 80798.362698                       # average overall mshr miss latency
system.l2.demand_avg_mshr_miss_latency::total 80749.234707                       # average overall mshr miss latency
system.l2.overall_avg_mshr_miss_latency::.cpu.inst 77040.307102                       # average overall mshr miss latency
system.l2.overall_avg_mshr_miss_latency::.cpu.data 80798.362698                       # average overall mshr miss latency
system.l2.overall_avg_mshr_miss_latency::total 80749.234707                       # average overall mshr miss latency
system.l2.replacements                           7087                       # number of replacements
system.l2.WritebackDirty_hits::.writebacks        43966                       # number of WritebackDirty hits
system.l2.WritebackDirty_hits::total            43966                       # number of WritebackDirty hits
system.l2.WritebackDirty_accesses::.writebacks        43966                       # number of WritebackDirty accesses(hits+misses)
system.l2.WritebackDirty_accesses::total        43966                       # number of WritebackDirty accesses(hits+misses)
system.l2.CleanEvict_mshr_misses::.writebacks            2                       # number of CleanEvict MSHR misses
system.l2.CleanEvict_mshr_misses::total             2                       # number of CleanEvict MSHR misses
system.l2.CleanEvict_mshr_miss_rate::.writebacks          inf                       # mshr miss rate for CleanEvict accesses
system.l2.CleanEvict_mshr_miss_rate::total          inf                       # mshr miss rate for CleanEvict accesses
system.l2.ReadExReq_hits::.cpu.data                 1                       # number of ReadExReq hits
system.l2.ReadExReq_hits::total                     1                       # number of ReadExReq hits
system.l2.ReadExReq_misses::.cpu.data           38810                       # number of ReadExReq misses
system.l2.ReadExReq_misses::total               38810                       # number of ReadExReq misses
system.l2.ReadExReq_miss_latency::.cpu.data   3906818000                       # number of ReadExReq miss cycles
system.l2.ReadExReq_miss_latency::total    3906818000                       # number of ReadExReq miss cycles
system.l2.ReadExReq_accesses::.cpu.data         38811                       # number of ReadExReq accesses(hits+misses)
system.l2.ReadExReq_accesses::total             38811                       # number of ReadExReq accesses(hits+misses)
system.l2.ReadExReq_miss_rate::.cpu.data     0.999974                       # miss rate for ReadExReq accesses
system.l2.ReadExReq_miss_rate::total         0.999974                       # miss rate for ReadExReq accesses
system.l2.ReadExReq_avg_miss_latency::.cpu.data 100665.240917                       # average ReadExReq miss latency
system.l2.ReadExReq_avg_miss_latency::total 100665.240917                       # average ReadExReq miss latency
system.l2.ReadExReq_mshr_misses::.cpu.data        38810                       # number of ReadExReq MSHR misses
system.l2.ReadExReq_mshr_misses::total          38810                       # number of ReadExReq MSHR misses
system.l2.ReadExReq_mshr_miss_latency::.cpu.data   3130618000                       # number of ReadExReq MSHR miss cycles
system.l2.ReadExReq_mshr_miss_latency::total   3130618000                       # number of ReadExReq MSHR miss cycles
system.l2.ReadExReq_mshr_miss_rate::.cpu.data     0.999974                       # mshr miss rate for ReadExReq accesses
system.l2.ReadExReq_mshr_miss_rate::total     0.999974                       # mshr miss rate for ReadExReq accesses
system.l2.ReadExReq_avg_mshr_miss_latency::.cpu.data 80665.240917                       # average ReadExReq mshr miss latency
system.l2.ReadExReq_avg_mshr_miss_latency::total 80665.240917                       # average ReadExReq mshr miss latency
system.l2.ReadCleanReq_hits::.cpu.inst              5                       # number of ReadCleanReq hits
system.l2.ReadCleanReq_hits::total                  5                       # number of ReadCleanReq hits
system.l2.ReadCleanReq_misses::.cpu.inst          522                       # number of ReadCleanReq misses
system.l2.ReadCleanReq_misses::total              522                       # number of ReadCleanReq misses
system.l2.ReadCleanReq_miss_latency::.cpu.inst     50638000                       # number of ReadCleanReq miss cycles
system.l2.ReadCleanReq_miss_latency::total     50638000                       # number of ReadCleanReq miss cycles
system.l2.ReadCleanReq_accesses::.cpu.inst          527                       # number of ReadCleanReq accesses(hits+misses)
system.l2.ReadCleanReq_accesses::total            527                       # number of ReadCleanReq accesses(hits+misses)
system.l2.ReadCleanReq_miss_rate::.cpu.inst     0.990512                       # miss rate for ReadCleanReq accesses
system.l2.ReadCleanReq_miss_rate::total      0.990512                       # miss rate for ReadCleanReq accesses
system.l2.ReadCleanReq_avg_miss_latency::.cpu.inst 97007.662835                       # average ReadCleanReq miss latency
system.l2.ReadCleanReq_avg_miss_latency::total 97007.662835                       # average ReadCleanReq miss latency
system.l2.ReadCleanReq_mshr_hits::.cpu.inst            1                       # number of ReadCleanReq MSHR hits
system.l2.ReadCleanReq_mshr_hits::total             1                       # number of ReadCleanReq MSHR hits
system.l2.ReadCleanReq_mshr_misses::.cpu.inst          521                       # number of ReadCleanReq MSHR misses
system.l2.ReadCleanReq_mshr_misses::total          521                       # number of ReadCleanReq MSHR misses
system.l2.ReadCleanReq_mshr_miss_latency::.cpu.inst     40138000                       # number of ReadCleanReq MSHR miss cycles
system.l2.ReadCleanReq_mshr_miss_latency::total     40138000                       # number of ReadCleanReq MSHR miss cycles
system.l2.ReadCleanReq_mshr_miss_rate::.cpu.inst     0.988615                       # mshr miss rate for ReadCleanReq accesses
system.l2.ReadCleanReq_mshr_miss_rate::total     0.988615                       # mshr miss rate for ReadCleanReq accesses
system.l2.ReadCleanReq_avg_mshr_miss_latency::.cpu.inst 77040.307102                       # average ReadCleanReq mshr miss latency
system.l2.ReadCleanReq_avg_mshr_miss_latency::total 77040.307102                       # average ReadCleanReq mshr miss latency
system.l2.ReadSharedReq_hits::.cpu.data          9380                       # number of ReadSharedReq hits
system.l2.ReadSharedReq_hits::total              9380                       # number of ReadSharedReq hits
system.l2.ReadSharedReq_misses::.cpu.data          528                       # number of ReadSharedReq misses
system.l2.ReadSharedReq_misses::total             528                       # number of ReadSharedReq misses
system.l2.ReadSharedReq_miss_latency::.cpu.data     58494000                       # number of ReadSharedReq miss cycles
system.l2.ReadSharedReq_miss_latency::total     58494000                       # number of ReadSharedReq miss cycles
system.l2.ReadSharedReq_accesses::.cpu.data         9908                       # number of ReadSharedReq accesses(hits+misses)
system.l2.ReadSharedReq_accesses::total          9908                       # number of ReadSharedReq accesses(hits+misses)
system.l2.ReadSharedReq_miss_rate::.cpu.data     0.053290                       # miss rate for ReadSharedReq accesses
system.l2.ReadSharedReq_miss_rate::total     0.053290                       # miss rate for ReadSharedReq accesses
system.l2.ReadSharedReq_avg_miss_latency::.cpu.data 110784.090909                       # average ReadSharedReq miss latency
system.l2.ReadSharedReq_avg_miss_latency::total 110784.090909                       # average ReadSharedReq miss latency
system.l2.ReadSharedReq_mshr_hits::.cpu.data            5                       # number of ReadSharedReq MSHR hits
system.l2.ReadSharedReq_mshr_hits::total            5                       # number of ReadSharedReq MSHR hits
system.l2.ReadSharedReq_mshr_misses::.cpu.data          523                       # number of ReadSharedReq MSHR misses
system.l2.ReadSharedReq_mshr_misses::total          523                       # number of ReadSharedReq MSHR misses
system.l2.ReadSharedReq_mshr_miss_latency::.cpu.data     47424000                       # number of ReadSharedReq MSHR miss cycles
system.l2.ReadSharedReq_mshr_miss_latency::total     47424000                       # number of ReadSharedReq MSHR miss cycles
system.l2.ReadSharedReq_mshr_miss_rate::.cpu.data     0.052786                       # mshr miss rate for ReadSharedReq accesses
system.l2.ReadSharedReq_mshr_miss_rate::total     0.052786                       # mshr miss rate for ReadSharedReq accesses
system.l2.ReadSharedReq_avg_mshr_miss_latency::.cpu.data 90676.864245                       # average ReadSharedReq mshr miss latency
system.l2.ReadSharedReq_avg_mshr_miss_latency::total 90676.864245                       # average ReadSharedReq mshr miss latency
system.l2.power_state.pwrStateResidencyTicks::UNDEFINED 111680260000                       # Cumulative time (in ticks) in various power states
system.l2.tags.tagsinuse                 26408.972015                       # Cycle average of tags in use
system.l2.tags.total_refs                       93843                       # Total number of references to valid blocks.
system.l2.tags.sampled_refs                     39855                       # Sample count of references to valid blocks.
system.l2.tags.avg_refs                      2.354610                       # Average number of references to valid blocks.
system.l2.tags.warmup_cycle                     87000                       # Cycle when the warmup percentage was hit.
system.l2.tags.occ_blocks::.writebacks       0.295120                       # Average occupied blocks per requestor
system.l2.tags.occ_blocks::.cpu.inst       328.398993                       # Average occupied blocks per requestor
system.l2.tags.occ_blocks::.cpu.data     26080.277902                       # Average occupied blocks per requestor
system.l2.tags.occ_percent::.writebacks      0.000009                       # Average percentage of cache occupancy
system.l2.tags.occ_percent::.cpu.inst        0.010022                       # Average percentage of cache occupancy
system.l2.tags.occ_percent::.cpu.data        0.795907                       # Average percentage of cache occupancy
system.l2.tags.occ_percent::total            0.805938                       # Average percentage of cache occupancy
system.l2.tags.occ_task_id_blocks::1024         32768                       # Occupied blocks per task id
system.l2.tags.age_task_id_blocks_1024::0            1                       # Occupied blocks per task id
system.l2.tags.age_task_id_blocks_1024::1           18                       # Occupied blocks per task id
system.l2.tags.age_task_id_blocks_1024::2          195                       # Occupied blocks per task id
system.l2.tags.age_task_id_blocks_1024::3         1944                       # Occupied blocks per task id
system.l2.tags.age_task_id_blocks_1024::4        30610                       # Occupied blocks per task id
system.l2.tags.occ_task_id_percent::1024            1                       # Percentage of cache occupancy per task id
system.l2.tags.tag_accesses                    790663                       # Number of tag accesses
system.l2.tags.data_accesses                   790663                       # Number of data accesses
system.l2.tags.power_state.pwrStateResidencyTicks::UNDEFINED 111680260000                       # Cumulative time (in ticks) in various power states
system.mem_ctrls.avgPriority_.writebacks::samples      6457.00                       # Average QoS priority value for accepted requests
system.mem_ctrls.avgPriority_.cpu.inst::samples       521.00                       # Average QoS priority value for accepted requests
system.mem_ctrls.avgPriority_.cpu.data::samples     39333.00                       # Average QoS priority value for accepted requests
system.mem_ctrls.priorityMinLatency      0.000000018750                       # per QoS priority minimum request to response latency (s)
system.mem_ctrls.priorityMaxLatency      0.041568363750                       # per QoS priority maximum request to response latency (s)
system.mem_ctrls.numReadWriteTurnArounds          357                       # Number of turnarounds from READ to WRITE
system.mem_ctrls.numWriteReadTurnArounds          357                       # Number of turnarounds from WRITE to READ
system.mem_ctrls.numStayReadState              114817                       # Number of times bus staying in READ state
system.mem_ctrls.numStayWriteState               6092                       # Number of times bus staying in WRITE state
system.mem_ctrls.readReqs                       39854                       # Number of read requests accepted
system.mem_ctrls.writeReqs                       6457                       # Number of write requests accepted
system.mem_ctrls.readBursts                     39854                       # Number of controller read bursts, including those serviced by the write queue
system.mem_ctrls.writeBursts                     6457                       # Number of controller write bursts, including those merged in the write queue
system.mem_ctrls.servicedByWrQ                      0                       # Number of controller read bursts serviced by the write queue
system.mem_ctrls.mergedWrBursts                     0                       # Number of controller write bursts merged with an existing one
system.mem_ctrls.neitherReadNorWriteReqs            0                       # Number of requests that are neither read nor write
system.mem_ctrls.avgRdQLen                       1.00                       # Average read queue length when enqueuing
system.mem_ctrls.avgWrQLen                       8.24                       # Average write queue length when enqueuing
system.mem_ctrls.numRdRetry                         0                       # Number of times read queue was full causing retry
system.mem_ctrls.numWrRetry                         0                       # Number of times write queue was full causing retry
system.mem_ctrls.readPktSize::0                     0                       # Read request sizes (log2)
system.mem_ctrls.readPktSize::1                     0                       # Read request sizes (log2)
system.mem_ctrls.readPktSize::2                     0                       # Read request sizes (log2)
system.mem_ctrls.readPktSize::3                     0                       # Read request sizes (log2)
system.mem_ctrls.readPktSize::4                     0                       # Read request sizes (log2)
system.mem_ctrls.readPktSize::5                     0                       # Read request sizes (log2)
system.mem_ctrls.readPktSize::6                 39854                       # Read request sizes (log2)
system.mem_ctrls.writePktSize::0                    0                       # Write request sizes (log2)
system.mem_ctrls.writePktSize::1                    0                       # Write request sizes (log2)
system.mem_ctrls.writePktSize::2                    0                       # Write request sizes (log2)
system.mem_ctrls.writePktSize::3                    0                       # Write request sizes (log2)
system.mem_ctrls.writePktSize::4                    0                       # Write request sizes (log2)
system.mem_ctrls.writePktSize::5                    0                       # Write request sizes (log2)
system.mem_ctrls.writePktSize::6                 6457                       # Write request sizes (log2)
system.mem_ctrls.rdQLenPdf::0                   39702                       # What read queue length does an incoming req see
system.mem_ctrls.rdQLenPdf::1                     147                       # What read queue length does an incoming req see
system.mem_ctrls.rdQLenPdf::2                       5                       # What read queue length does an incoming req see
system.mem_ctrls.rdQLenPdf::3                       0                       # What read queue length does an incoming req see
system.mem_ctrls.rdQLenPdf::4                       0                       # What read queue length does an incoming req see
system.mem_ctrls.rdQLenPdf::5                       0                       # What read queue length does an incoming req see
system.mem_ctrls.rdQLenPdf::6                       0                       # What read queue length does an incoming req see
system.mem_ctrls.rdQLenPdf::7                       0                       # What read queue length does an incoming req see
system.mem_ctrls.rdQLenPdf::8                       0                       # What read queue length does an incoming req see
[...]
system.mem_ctrls.dram.bw_inst_read::total       298567                       # Instruction read bandwidth from this memory (bytes/s)
system.mem_ctrls.dram.bw_write::.writebacks      3700278                       # Write bandwidth from this memory (bytes/s)
system.mem_ctrls.dram.bw_write::total         3700278                       # Write bandwidth from this memory (bytes/s)
system.mem_ctrls.dram.bw_total::.writebacks      3700278                       # Total bandwidth to/from this memory (bytes/s)
system.mem_ctrls.dram.bw_total::.cpu.inst       298567                       # Total bandwidth to/from this memory (bytes/s)
system.mem_ctrls.dram.bw_total::.cpu.data     22540349                       # Total bandwidth to/from this memory (bytes/s)
system.mem_ctrls.dram.bw_total::total        26539193                       # Total bandwidth to/from this memory (bytes/s)
system.mem_ctrls.dram.readBursts                39854                       # Number of DRAM read bursts
system.mem_ctrls.dram.writeBursts                6427                       # Number of DRAM write bursts
system.mem_ctrls.dram.perBankRdBursts::0         2530                       # Per bank write bursts
system.mem_ctrls.dram.perBankRdBursts::1         2492                       # Per bank write bursts
system.mem_ctrls.dram.perBankRdBursts::2         2485                       # Per bank write bursts
system.mem_ctrls.dram.perBankRdBursts::3         2592                       # Per bank write bursts
system.mem_ctrls.dram.perBankRdBursts::4         2450                       # Per bank write bursts
system.mem_ctrls.dram.perBankRdBursts::5         2383                       # Per bank write bursts
system.mem_ctrls.dram.perBankRdBursts::6         2455                       # Per bank write bursts
system.mem_ctrls.dram.perBankRdBursts::7         2463                       # Per bank write bursts
system.mem_ctrls.dram.perBankRdBursts::8         2472                       # Per bank write bursts
system.mem_ctrls.dram.perBankRdBursts::9         2505                       # Per bank write bursts
system.mem_ctrls.dram.perBankRdBursts::10         2493                       # Per bank write bursts
system.mem_ctrls.dram.perBankRdBursts::11         2512                       # Per bank write bursts
system.mem_ctrls.dram.perBankRdBursts::12         2500                       # Per bank write bursts
system.mem_ctrls.dram.perBankRdBursts::13         2489                       # Per bank write bursts
system.mem_ctrls.dram.perBankRdBursts::14         2517                       # Per bank write bursts
system.mem_ctrls.dram.perBankRdBursts::15         2516                       # Per bank write bursts
system.mem_ctrls.dram.perBankWrBursts::0          436                       # Per bank write bursts
system.mem_ctrls.dram.perBankWrBursts::1          398                       # Per bank write bursts
system.mem_ctrls.dram.perBankWrBursts::2          419                       # Per bank write bursts
system.mem_ctrls.dram.perBankWrBursts::3          447                       # Per bank write bursts
system.mem_ctrls.dram.perBankWrBursts::4          346                       # Per bank write bursts
system.mem_ctrls.dram.perBankWrBursts::5          334                       # Per bank write bursts
system.mem_ctrls.dram.perBankWrBursts::6          407                       # Per bank write bursts
system.mem_ctrls.dram.perBankWrBursts::7          387                       # Per bank write bursts
system.mem_ctrls.dram.perBankWrBursts::8          396                       # Per bank write bursts
system.mem_ctrls.dram.perBankWrBursts::9          404                       # Per bank write bursts
system.mem_ctrls.dram.perBankWrBursts::10          404                       # Per bank write bursts
system.mem_ctrls.dram.perBankWrBursts::11          400                       # Per bank write bursts
system.mem_ctrls.dram.perBankWrBursts::12          401                       # Per bank write bursts
system.mem_ctrls.dram.perBankWrBursts::13          415                       # Per bank write bursts
system.mem_ctrls.dram.perBankWrBursts::14          395                       # Per bank write bursts
system.mem_ctrls.dram.perBankWrBursts::15          438                       # Per bank write bursts
system.mem_ctrls.dram.totQLat               424159500                       # Total ticks spent queuing
system.mem_ctrls.dram.totBusLat             199270000                       # Total ticks spent in databus transfers
system.mem_ctrls.dram.totMemAccLat         1171422000                       # Total ticks spent from burst creation until serviced by the DRAM
system.mem_ctrls.dram.avgQLat                10642.83                       # Average queueing delay per DRAM burst
system.mem_ctrls.dram.avgBusLat               5000.00                       # Average bus latency per DRAM burst
system.mem_ctrls.dram.avgMemAccLat           29392.83                       # Average memory access latency per DRAM burst
system.mem_ctrls.dram.readRowHits               22552                       # Number of row buffer hits during reads
system.mem_ctrls.dram.writeRowHits               5393                       # Number of row buffer hits during writes
system.mem_ctrls.dram.readRowHitRate            56.59                       # Row buffer hit rate for reads
system.mem_ctrls.dram.writeRowHitRate           83.91                       # Row buffer hit rate for writes
system.mem_ctrls.dram.bytesPerActivate::samples        18336                       # Bytes accessed per row activation
system.mem_ctrls.dram.bytesPerActivate::mean   161.539267                       # Bytes accessed per row activation
system.mem_ctrls.dram.bytesPerActivate::gmean   122.106363                       # Bytes accessed per row activation
system.mem_ctrls.dram.bytesPerActivate::stdev   159.508918                       # Bytes accessed per row activation
system.mem_ctrls.dram.bytesPerActivate::0-127         7081     38.62%     38.62% # Bytes accessed per row activation
system.mem_ctrls.dram.bytesPerActivate::128-255         8243     44.96%     83.57% # Bytes accessed per row activation
system.mem_ctrls.dram.bytesPerActivate::256-383         1005      5.48%     89.05% # Bytes accessed per row activation
system.mem_ctrls.dram.bytesPerActivate::384-511          928      5.06%     94.12% # Bytes accessed per row activation
system.mem_ctrls.dram.bytesPerActivate::512-639          682      3.72%     97.83% # Bytes accessed per row activation
system.mem_ctrls.dram.bytesPerActivate::640-767          111      0.61%     98.44% # Bytes accessed per row activation
system.mem_ctrls.dram.bytesPerActivate::768-895           48      0.26%     98.70% # Bytes accessed per row activation
system.mem_ctrls.dram.bytesPerActivate::896-1023           43      0.23%     98.94% # Bytes accessed per row activation
system.mem_ctrls.dram.bytesPerActivate::1024-1151          195      1.06%    100.00% # Bytes accessed per row activation
system.mem_ctrls.dram.bytesPerActivate::total        18336                       # Bytes accessed per row activation
system.mem_ctrls.dram.bytesRead               2550656                       # Total number of bytes read from DRAM
system.mem_ctrls.dram.bytesWritten             411328                       # Total number of bytes written to DRAM
system.mem_ctrls.dram.avgRdBW               22.838915                       # Average DRAM read bandwidth in MiBytes/s
system.mem_ctrls.dram.avgWrBW                3.683086                       # Average DRAM write bandwidth in MiBytes/s
system.mem_ctrls.dram.peakBW                 12800.00                       # Theoretical peak bandwidth in MiByte/s
system.mem_ctrls.dram.busUtil                    0.21                       # Data bus utilization in percentage
system.mem_ctrls.dram.busUtilRead                0.18                       # Data bus utilization in percentage for reads
system.mem_ctrls.dram.busUtilWrite               0.03                       # Data bus utilization in percentage for writes
system.mem_ctrls.dram.pageHitRate               60.38                       # Row buffer hit rate, read and write combined
system.mem_ctrls.dram.power_state.pwrStateResidencyTicks::UNDEFINED 111680260000                       # Cumulative time (in ticks) in various power states
system.mem_ctrls.dram.rank0.actEnergy        66466260                       # Energy for activate commands per rank (pJ)
system.mem_ctrls.dram.rank0.preEnergy        35327655                       # Energy for precharge commands per rank (pJ)
system.mem_ctrls.dram.rank0.readEnergy      141729000                       # Energy for read commands per rank (pJ)
system.mem_ctrls.dram.rank0.writeEnergy      16568280                       # Energy for write commands per rank (pJ)
system.mem_ctrls.dram.rank0.refreshEnergy 8815781520.000002                       # Energy for refresh commands per rank (pJ)
system.mem_ctrls.dram.rank0.actBackEnergy  20194662240                       # Energy for active background per rank (pJ)
system.mem_ctrls.dram.rank0.preBackEnergy  25879188480                       # Energy for precharge background per rank (pJ)
system.mem_ctrls.dram.rank0.actPowerDownEnergy            0                       # Energy for active power-down per rank (pJ)
system.mem_ctrls.dram.rank0.prePowerDownEnergy            0                       # Energy for precharge power-down per rank (pJ)
system.mem_ctrls.dram.rank0.selfRefreshEnergy            0                       # Energy for self refresh per rank (pJ)
system.mem_ctrls.dram.rank0.totalEnergy   55149723435                       # Total energy per rank (pJ)
system.mem_ctrls.dram.rank0.averagePower   493.818007                       # Core power per rank (mW)
system.mem_ctrls.dram.rank0.totalIdleTime            0                       # Total Idle time Per DRAM Rank
system.mem_ctrls.dram.rank0.pwrStateTime::IDLE  67086438000                       # Time in different power states
system.mem_ctrls.dram.rank0.pwrStateTime::REF   3729180000                       # Time in different power states
system.mem_ctrls.dram.rank0.pwrStateTime::SREF            0                       # Time in different power states
system.mem_ctrls.dram.rank0.pwrStateTime::PRE_PDN            0                       # Time in different power states
system.mem_ctrls.dram.rank0.pwrStateTime::ACT  40864642000                       # Time in different power states
system.mem_ctrls.dram.rank0.pwrStateTime::ACT_PDN            0                       # Time in different power states
system.mem_ctrls.dram.rank1.actEnergy        64452780                       # Energy for activate commands per rank (pJ)
system.mem_ctrls.dram.rank1.preEnergy        34257465                       # Energy for precharge commands per rank (pJ)
system.mem_ctrls.dram.rank1.readEnergy      142828560                       # Energy for read commands per rank (pJ)
system.mem_ctrls.dram.rank1.writeEnergy      16980660                       # Energy for write commands per rank (pJ)
system.mem_ctrls.dram.rank1.refreshEnergy 8815781520.000002                       # Energy for refresh commands per rank (pJ)
system.mem_ctrls.dram.rank1.actBackEnergy  19885163070                       # Energy for active background per rank (pJ)
system.mem_ctrls.dram.rank1.preBackEnergy  26139819360                       # Energy for precharge background per rank (pJ)
system.mem_ctrls.dram.rank1.actPowerDownEnergy            0                       # Energy for active power-down per rank (pJ)
system.mem_ctrls.dram.rank1.prePowerDownEnergy            0                       # Energy for precharge power-down per rank (pJ)
system.mem_ctrls.dram.rank1.selfRefreshEnergy            0                       # Energy for self refresh per rank (pJ)
system.mem_ctrls.dram.rank1.totalEnergy   55099283415                       # Total energy per rank (pJ)
system.mem_ctrls.dram.rank1.averagePower   493.366360                       # Core power per rank (mW)
system.mem_ctrls.dram.rank1.totalIdleTime            0                       # Total Idle time Per DRAM Rank
system.mem_ctrls.dram.rank1.pwrStateTime::IDLE  67766335750                       # Time in different power states
system.mem_ctrls.dram.rank1.pwrStateTime::REF   3729180000                       # Time in different power states
system.mem_ctrls.dram.rank1.pwrStateTime::SREF            0                       # Time in different power states
system.mem_ctrls.dram.rank1.pwrStateTime::PRE_PDN            0                       # Time in different power states
system.mem_ctrls.dram.rank1.pwrStateTime::ACT  40184744250                       # Time in different power states
system.mem_ctrls.dram.rank1.pwrStateTime::ACT_PDN            0                       # Time in different power states
system.mem_ctrls.power_state.pwrStateResidencyTicks::UNDEFINED 111680260000                       # Cumulative time (in ticks) in various power states
system.membus.trans_dist::ReadResp               1044                       # Transaction distribution
system.membus.trans_dist::WritebackDirty         6457                       # Transaction distribution
system.membus.trans_dist::CleanEvict               64                       # Transaction distribution
system.membus.trans_dist::ReadExReq             38810                       # Transaction distribution
system.membus.trans_dist::ReadExResp            38810                       # Transaction distribution
system.membus.trans_dist::ReadSharedReq          1044                       # Transaction distribution
system.membus.pkt_count_system.l2.mem_side_port::system.mem_ctrls.port        86229                       # Packet count per connected requestor and responder (bytes)
system.membus.pkt_count::total                  86229                       # Packet count per connected requestor and responder (bytes)
system.membus.pkt_size_system.l2.mem_side_port::system.mem_ctrls.port      2963904                       # Cumulative packet size per connected requestor and responder (bytes)
system.membus.pkt_size::total                 2963904                       # Cumulative packet size per connected requestor and responder (bytes)
system.membus.snoops                                0                       # Total snoops (count)
system.membus.snoopTraffic                          0                       # Total snoop traffic (bytes)
system.membus.snoop_fanout::samples             39854                       # Request fanout histogram
system.membus.snoop_fanout::mean                    0                       # Request fanout histogram
system.membus.snoop_fanout::stdev                   0                       # Request fanout histogram
system.membus.snoop_fanout::underflows              0      0.00%      0.00% # Request fanout histogram
system.membus.snoop_fanout::0                   39854    100.00%    100.00% # Request fanout histogram
system.membus.snoop_fanout::1                       0      0.00%    100.00% # Request fanout histogram
system.membus.snoop_fanout::overflows               0      0.00%    100.00% # Request fanout histogram
system.membus.snoop_fanout::min_value               0                       # Request fanout histogram
system.membus.snoop_fanout::max_value               0                       # Request fanout histogram
system.membus.snoop_fanout::total               39854                       # Request fanout histogram
system.membus.power_state.pwrStateResidencyTicks::UNDEFINED 111680260000                       # Cumulative time (in ticks) in various power states
system.membus.reqLayer0.occupancy            72203000                       # Layer occupancy (ticks)
system.membus.reqLayer0.utilization               0.1                       # Layer utilization (%)
system.membus.respLayer1.occupancy          213463750                       # Layer occupancy (ticks)
system.membus.respLayer1.utilization              0.2                       # Layer utilization (%)
system.tol2bus.trans_dist::ReadResp             10435                       # Transaction distribution
system.tol2bus.trans_dist::WritebackDirty        50423                       # Transaction distribution
system.tol2bus.trans_dist::CleanEvict            1287                       # Transaction distribution
system.tol2bus.trans_dist::ReadExReq            38811                       # Transaction distribution
system.tol2bus.trans_dist::ReadExResp           38811                       # Transaction distribution
system.tol2bus.trans_dist::ReadCleanReq           527                       # Transaction distribution
system.tol2bus.trans_dist::ReadSharedReq         9908                       # Transaction distribution
system.tol2bus.pkt_count_system.cpu.icache.mem_side_port::system.l2.cpu_side_port         1054                       # Packet count per connected requestor and responder (bytes)
system.tol2bus.pkt_count_system.cpu.dcache.mem_side_port::system.l2.cpu_side_port       142061                       # Packet count per connected requestor and responder (bytes)
system.tol2bus.pkt_count::total                143115                       # Packet count per connected requestor and responder (bytes)
system.tol2bus.pkt_size_system.cpu.icache.mem_side_port::system.l2.cpu_side_port        33728                       # Cumulative packet size per connected requestor and responder (bytes)
system.tol2bus.pkt_size_system.cpu.dcache.mem_side_port::system.l2.cpu_side_port      5931840                       # Cumulative packet size per connected requestor and responder (bytes)
system.tol2bus.pkt_size::total                5965568                       # Cumulative packet size per connected requestor and responder (bytes)
system.tol2bus.snoops                            7087                       # Total snoops (count)
system.tol2bus.snoopTraffic                    413248                       # Total snoop traffic (bytes)
system.tol2bus.snoop_fanout::samples            56333                       # Request fanout histogram
system.tol2bus.snoop_fanout::mean            0.010544                       # Request fanout histogram
system.tol2bus.snoop_fanout::stdev           0.102837                       # Request fanout histogram
system.tol2bus.snoop_fanout::underflows             0      0.00%      0.00% # Request fanout histogram
system.tol2bus.snoop_fanout::0                  55743     98.95%     98.95% # Request fanout histogram
system.tol2bus.snoop_fanout::1                    586      1.04%     99.99% # Request fanout histogram
system.tol2bus.snoop_fanout::2                      4      0.01%    100.00% # Request fanout histogram
system.tol2bus.snoop_fanout::overflows              0      0.00%    100.00% # Request fanout histogram
system.tol2bus.snoop_fanout::min_value              0                       # Request fanout histogram
system.tol2bus.snoop_fanout::max_value              2                       # Request fanout histogram
system.tol2bus.snoop_fanout::total              56333                       # Request fanout histogram
system.tol2bus.power_state.pwrStateResidencyTicks::UNDEFINED 111680260000                       # Cumulative time (in ticks) in various power states
system.tol2bus.reqLayer0.occupancy          181801000                       # Layer occupancy (ticks)
system.tol2bus.reqLayer0.utilization              0.2                       # Layer utilization (%)
system.tol2bus.respLayer0.occupancy           1581999                       # Layer occupancy (ticks)
system.tol2bus.respLayer0.utilization             0.0                       # Layer utilization (%)
system.tol2bus.respLayer1.occupancy         146161995                       # Layer occupancy (ticks)
system.tol2bus.respLayer1.utilization             0.1                       # Layer utilization (%)
system.voltage_domain.voltage                       1                       # Voltage in Volts

---------- End Simulation Statistics   ----------
