
---------- Begin Simulation Statistics ----------
final_tick                               705316274000                       # Number of ticks from beginning of simulation (restored from checkpoints and never reset)
host_inst_rate                                 156540                       # Simulator instruction rate (inst/s)
host_mem_usage                                8545680                       # Number of bytes of host memory used
host_op_rate                                   288375                       # Simulator op (including micro ops) rate (op/s)
host_seconds                                   638.82                       # Real time elapsed on the host
host_tick_rate                             1104098761                       # Simulator tick rate (ticks/s)
sim_freq                                 1000000000000                       # Frequency of simulated ticks
sim_insts                                   100000000                       # Number of instructions simulated
sim_ops                                     184218810                       # Number of ops (including micro ops) simulated
sim_seconds                                  0.705316                       # Number of seconds simulated
sim_ticks                                705316274000                       # Number of ticks simulated
system.cpu.committedInsts                   100000000                       # Number of instructions committed
system.cpu.committedOps                     184218810                       # Number of ops (including micro ops) committed
system.cpu.cpi                               7.053163                       # CPI: cycles per instruction
system.cpu.discardedOps                          4397                       # Number of ops (including micro ops) which were discarded before commit
system.cpu.idleCycles                       483632059                       # Total number of cycles that the object has spent stopped
system.cpu.ipc                               0.141780                       # IPC: instructions per cycle
system.cpu.numCycles                        705316274                       # number of cpu cycles simulated
system.cpu.numFetchSuspends                         0                       # Number of times Execute suspended instruction fetching
system.cpu.numWorkItemsCompleted                    0                       # number of work items this cpu completed
system.cpu.numWorkItemsStarted                      0                       # number of work items this cpu started
system.cpu.op_class_0::No_OpClass                   0      0.00%      0.00% # Class of committed instruction
system.cpu.op_class_0::IntAlu                97640467     53.00%     53.00% # Class of committed instruction
system.cpu.op_class_0::IntMult                 114702      0.06%     53.06% # Class of committed instruction
system.cpu.op_class_0::IntDiv                       0      0.00%     53.06% # Class of committed instruction
system.cpu.op_class_0::FloatAdd                     0      0.00%     53.06% # Class of committed instruction
system.cpu.op_class_0::FloatCmp                     0      0.00%     53.06% # Class of committed instruction
system.cpu.op_class_0::FloatCvt                     0      0.00%     53.06% # Class of committed instruction
system.cpu.op_class_0::FloatMult                    0      0.00%     53.06% # Class of committed instruction
system.cpu.op_class_0::FloatMultAcc                 0      0.00%     53.06% # Class of committed instruction
system.cpu.op_class_0::FloatDiv                     0      0.00%     53.06% # Class of committed instruction
system.cpu.op_class_0::FloatMisc                    0      0.00%     53.06% # Class of committed instruction
system.cpu.op_class_0::FloatSqrt                    0      0.00%     53.06% # Class of committed instruction
system.cpu.op_class_0::SimdAdd                      8      0.00%     53.06% # Class of committed instruction
system.cpu.op_class_0::SimdAddAcc                   0      0.00%     53.06% # Class of committed instruction
system.cpu.op_class_0::SimdAlu                     10      0.00%     53.06% # Class of committed instruction
system.cpu.op_class_0::SimdCmp                      8      0.00%     53.06% # Class of committed instruction
system.cpu.op_class_0::SimdCvt                      0      0.00%     53.06% # Class of committed instruction
system.cpu.op_class_0::SimdMisc                     1      0.00%     53.06% # Class of committed instruction
system.cpu.op_class_0::SimdMult                     0      0.00%     53.06% # Class of committed instruction
system.cpu.op_class_0::SimdMultAcc                  0      0.00%     53.06% # Class of committed instruction
system.cpu.op_class_0::SimdShift                    0      0.00%     53.06% # Class of committed instruction
system.cpu.op_class_0::SimdShiftAcc                 0      0.00%     53.06% # Class of committed instruction
system.cpu.op_class_0::SimdDiv                      0      0.00%     53.06% # Class of committed instruction
system.cpu.op_class_0::SimdSqrt                     0      0.00%     53.06% # Class of committed instruction
system.cpu.op_class_0::SimdFloatAdd                 0      0.00%     53.06% # Class of committed instruction
system.cpu.op_class_0::SimdFloatAlu                 0      0.00%     53.06% # Class of committed instruction
system.cpu.op_class_0::SimdFloatCmp                 0      0.00%     53.06% # Class of committed instruction
system.cpu.op_class_0::SimdFloatCvt                 0      0.00%     53.06% # Class of committed instruction
system.cpu.op_class_0::SimdFloatDiv                 0      0.00%     53.06% # Class of committed instruction
system.cpu.op_class_0::SimdFloatMisc               24      0.00%     53.06% # Class of committed instruction
system.cpu.op_class_0::SimdFloatMult                0      0.00%     53.06% # Class of committed instruction
system.cpu.op_class_0::SimdFloatMultAcc             0      0.00%     53.06% # Class of committed instruction
system.cpu.op_class_0::SimdFloatSqrt                0      0.00%     53.06% # Class of committed instruction
system.cpu.op_class_0::SimdReduceAdd                0      0.00%     53.06% # Class of committed instruction
system.cpu.op_class_0::SimdReduceAlu                0      0.00%     53.06% # Class of committed instruction
system.cpu.op_class_0::SimdReduceCmp                0      0.00%     53.06% # Class of committed instruction
system.cpu.op_class_0::SimdFloatReduceAdd            0      0.00%     53.06% # Class of committed instruction
system.cpu.op_class_0::SimdFloatReduceCmp            0      0.00%     53.06% # Class of committed instruction
system.cpu.op_class_0::SimdAes                      0      0.00%     53.06% # Class of committed instruction
system.cpu.op_class_0::SimdAesMix                   0      0.00%     53.06% # Class of committed instruction
system.cpu.op_class_0::SimdSha1Hash                 0      0.00%     53.06% # Class of committed instruction
system.cpu.op_class_0::SimdSha1Hash2                0      0.00%     53.06% # Class of committed instruction
system.cpu.op_class_0::SimdSha256Hash               0      0.00%     53.06% # Class of committed instruction
system.cpu.op_class_0::SimdSha256Hash2              0      0.00%     53.06% # Class of committed instruction
system.cpu.op_class_0::SimdShaSigma2                0      0.00%     53.06% # Class of committed instruction
system.cpu.op_class_0::SimdShaSigma3                0      0.00%     53.06% # Class of committed instruction
system.cpu.op_class_0::SimdPredAlu                  0      0.00%     53.06% # Class of committed instruction
system.cpu.op_class_0::MemRead                2082677      1.13%     54.20% # Class of committed instruction
system.cpu.op_class_0::MemWrite              84380913     45.80%    100.00% # Class of committed instruction
system.cpu.op_class_0::FloatMemRead                 0      0.00%    100.00% # Class of committed instruction
system.cpu.op_class_0::FloatMemWrite                0      0.00%    100.00% # Class of committed instruction
system.cpu.op_class_0::IprAccess                    0      0.00%    100.00% # Class of committed instruction
system.cpu.op_class_0::InstPrefetch                 0      0.00%    100.00% # Class of committed instruction
system.cpu.op_class_0::total                184218810                       # Class of committed instruction
system.cpu.tickCycles                       221684215                       # Number of cycles that the object actually ticked
system.cpu.workload.numSyscalls                    19                       # Number of system calls
system.membus.snoop_filter.hit_multi_requests            0                       # Number of requests hitting in the snoop filter with multiple (>1) holders of the requested data.
system.membus.snoop_filter.hit_multi_snoops            0                       # Number of snoops hitting in the snoop filter with multiple (>1) holders of the requested data.
system.membus.snoop_filter.hit_single_requests      5197747                       # Number of requests hitting in the snoop filter with a single holder of the requested data.
system.membus.snoop_filter.hit_single_snoops            0                       # Number of snoops hitting in the snoop filter with a single holder of the requested data.
system.membus.snoop_filter.tot_requests      10461626                       # Total number of requests made to the snoop filter.
system.membus.snoop_filter.tot_snoops               0                       # Total number of snoops made to the snoop filter.
system.tol2bus.snoop_filter.hit_multi_requests           55                       # Number of requests hitting in the snoop filter with multiple (>1) holders of the requested data.
system.tol2bus.snoop_filter.hit_multi_snoops            0                       # Number of snoops hitting in the snoop filter with multiple (>1) holders of the requested data.
system.tol2bus.snoop_filter.hit_single_requests      5259233                       # Number of requests hitting in the snoop filter with a single holder of the requested data.
system.tol2bus.snoop_filter.hit_single_snoops          620                       # Number of snoops hitting in the snoop filter with a single holder of the requested data.
system.tol2bus.snoop_filter.tot_requests     10523171                       # Total number of requests made to the snoop filter.
system.tol2bus.snoop_filter.tot_snoops            620                       # Total number of snoops made to the snoop filter.
system.clk_domain.clock                          1000                       # Clock period in ticks
system.cpu.branchPred.lookups                10658224                       # Number of BP lookups
system.cpu.branchPred.condPredicted          10649992                       # Number of conditional branches predicted
system.cpu.branchPred.condIncorrect              1453                       # Number of conditional branches incorrect
system.cpu.branchPred.BTBLookups             10650203                       # Number of BTB lookups
system.cpu.branchPred.BTBHits                10648844                       # Number of BTB hits
system.cpu.branchPred.BTBHitPct             99.987240                       # BTB Hit Percentage
system.cpu.branchPred.RASUsed                    2714                       # Number of times the RAS was used to get a target.
system.cpu.branchPred.RASIncorrect                  1                       # Number of incorrect RAS predictions.
system.cpu.branchPred.indirectLookups             195                       # Number of indirect predictor lookups.
system.cpu.branchPred.indirectHits                 18                       # Number of indirect target hits.
system.cpu.branchPred.indirectMisses              177                       # Number of indirect misses.
system.cpu.branchPred.indirectMispredicted          105                       # Number of mispredicted indirect branches.
system.cpu.dcache.demand_hits::.cpu.data     75857012                       # number of demand (read+write) hits
system.cpu.dcache.demand_hits::total         75857012                       # number of demand (read+write) hits
system.cpu.dcache.overall_hits::.cpu.data     75857050                       # number of overall hits
system.cpu.dcache.overall_hits::total        75857050                       # number of overall hits
system.cpu.dcache.demand_misses::.cpu.data     10523753                       # number of demand (read+write) misses
system.cpu.dcache.demand_misses::total       10523753                       # number of demand (read+write) misses
system.cpu.dcache.overall_misses::.cpu.data     10523786                       # number of overall misses
system.cpu.dcache.overall_misses::total      10523786                       # number of overall misses
system.cpu.dcache.demand_miss_latency::.cpu.data 1108886782000                       # number of demand (read+write) miss cycles
system.cpu.dcache.demand_miss_latency::total 1108886782000                       # number of demand (read+write) miss cycles
system.cpu.dcache.overall_miss_latency::.cpu.data 1108886782000                       # number of overall miss cycles
system.cpu.dcache.overall_miss_latency::total 1108886782000                       # number of overall miss cycles
system.cpu.dcache.demand_accesses::.cpu.data     86380765                       # number of demand (read+write) accesses
system.cpu.dcache.demand_accesses::total     86380765                       # number of demand (read+write) accesses
system.cpu.dcache.overall_accesses::.cpu.data     86380836                       # number of overall (read+write) accesses
system.cpu.dcache.overall_accesses::total     86380836                       # number of overall (read+write) accesses
system.cpu.dcache.demand_miss_rate::.cpu.data     0.121830                       # miss rate for demand accesses
system.cpu.dcache.demand_miss_rate::total     0.121830                       # miss rate for demand accesses
system.cpu.dcache.overall_miss_rate::.cpu.data     0.121830                       # miss rate for overall accesses
system.cpu.dcache.overall_miss_rate::total     0.121830                       # miss rate for overall accesses
system.cpu.dcache.demand_avg_miss_latency::.cpu.data 105369.898172                       # average overall miss latency
system.cpu.dcache.demand_avg_miss_latency::total 105369.898172                       # average overall miss latency
system.cpu.dcache.overall_avg_miss_latency::.cpu.data 105369.567758                       # average overall miss latency
system.cpu.dcache.overall_avg_miss_latency::total 105369.567758                       # average overall miss latency
system.cpu.dcache.blocked_cycles::no_mshrs          325                       # number of cycles access was blocked
system.cpu.dcache.blocked_cycles::no_targets            0                       # number of cycles access was blocked
system.cpu.dcache.blocked::no_mshrs                 3                       # number of cycles access was blocked
system.cpu.dcache.blocked::no_targets               0                       # number of cycles access was blocked
system.cpu.dcache.avg_blocked_cycles::no_mshrs   108.333333                       # average number of cycles each access was blocked
system.cpu.dcache.avg_blocked_cycles::no_targets          nan                       # average number of cycles each access was blocked
system.cpu.dcache.writebacks::.writebacks      5258957                       # number of writebacks
system.cpu.dcache.writebacks::total           5258957                       # number of writebacks
system.cpu.dcache.demand_mshr_hits::.cpu.data      5260453                       # number of demand (read+write) MSHR hits
system.cpu.dcache.demand_mshr_hits::total      5260453                       # number of demand (read+write) MSHR hits
system.cpu.dcache.overall_mshr_hits::.cpu.data      5260453                       # number of overall MSHR hits
system.cpu.dcache.overall_mshr_hits::total      5260453                       # number of overall MSHR hits
system.cpu.dcache.demand_mshr_misses::.cpu.data      5263300                       # number of demand (read+write) MSHR misses
system.cpu.dcache.demand_mshr_misses::total      5263300                       # number of demand (read+write) MSHR misses
system.cpu.dcache.overall_mshr_misses::.cpu.data      5263330                       # number of overall MSHR misses
system.cpu.dcache.overall_mshr_misses::total      5263330                       # number of overall MSHR misses
system.cpu.dcache.demand_mshr_miss_latency::.cpu.data 541443519000                       # number of demand (read+write) MSHR miss cycles
system.cpu.dcache.demand_mshr_miss_latency::total 541443519000                       # number of demand (read+write) MSHR miss cycles
system.cpu.dcache.overall_mshr_miss_latency::.cpu.data 541447022000                       # number of overall MSHR miss cycles
system.cpu.dcache.overall_mshr_miss_latency::total 541447022000                       # number of overall MSHR miss cycles
system.cpu.dcache.demand_mshr_miss_rate::.cpu.data     0.060931                       # mshr miss rate for demand accesses
system.cpu.dcache.demand_mshr_miss_rate::total     0.060931                       # mshr miss rate for demand accesses
system.cpu.dcache.overall_mshr_miss_rate::.cpu.data     0.060932                       # mshr miss rate for overall accesses
system.cpu.dcache.overall_mshr_miss_rate::total     0.060932                       # mshr miss rate for overall accesses
system.cpu.dcache.demand_avg_mshr_miss_latency::.cpu.data 102871.491080                       # average overall mshr miss latency
system.cpu.dcache.demand_avg_mshr_miss_latency::total 102871.491080                       # average overall mshr miss latency
system.cpu.dcache.overall_avg_mshr_miss_latency::.cpu.data 102871.570280                       # average overall mshr miss latency
system.cpu.dcache.overall_avg_mshr_miss_latency::total 102871.570280                       # average overall mshr miss latency
system.cpu.dcache.replacements                5259233                       # number of replacements
system.cpu.dcache.ReadReq_hits::.cpu.data      2043850                       # number of ReadReq hits
system.cpu.dcache.ReadReq_hits::total         2043850                       # number of ReadReq hits
system.cpu.dcache.ReadReq_misses::.cpu.data          297                       # number of ReadReq misses
system.cpu.dcache.ReadReq_misses::total           297                       # number of ReadReq misses
system.cpu.dcache.ReadReq_miss_latency::.cpu.data     30593000                       # number of ReadReq miss cycles
system.cpu.dcache.ReadReq_miss_latency::total     30593000                       # number of ReadReq miss cycles
system.cpu.dcache.ReadReq_accesses::.cpu.data      2044147                       # number of ReadReq accesses(hits+misses)
system.cpu.dcache.ReadReq_accesses::total      2044147                       # number of ReadReq accesses(hits+misses)
system.cpu.dcache.ReadReq_miss_rate::.cpu.data     0.000145                       # miss rate for ReadReq accesses
system.cpu.dcache.ReadReq_miss_rate::total     0.000145                       # miss rate for ReadReq accesses
system.cpu.dcache.ReadReq_avg_miss_latency::.cpu.data 103006.734007                       # average ReadReq miss latency
system.cpu.dcache.ReadReq_avg_miss_latency::total 103006.734007                       # average ReadReq miss latency
system.cpu.dcache.ReadReq_mshr_hits::.cpu.data           21                       # number of ReadReq MSHR hits
system.cpu.dcache.ReadReq_mshr_hits::total           21                       # number of ReadReq MSHR hits
system.cpu.dcache.ReadReq_mshr_misses::.cpu.data          276                       # number of ReadReq MSHR misses
system.cpu.dcache.ReadReq_mshr_misses::total          276                       # number of ReadReq MSHR misses
system.cpu.dcache.ReadReq_mshr_miss_latency::.cpu.data     27986000                       # number of ReadReq MSHR miss cycles
system.cpu.dcache.ReadReq_mshr_miss_latency::total     27986000                       # number of ReadReq MSHR miss cycles
system.cpu.dcache.ReadReq_mshr_miss_rate::.cpu.data     0.000135                       # mshr miss rate for ReadReq accesses
system.cpu.dcache.ReadReq_mshr_miss_rate::total     0.000135                       # mshr miss rate for ReadReq accesses
system.cpu.dcache.ReadReq_avg_mshr_miss_latency::.cpu.data 101398.550725                       # average ReadReq mshr miss latency
system.cpu.dcache.ReadReq_avg_mshr_miss_latency::total 101398.550725                       # average ReadReq mshr miss latency
system.cpu.dcache.WriteReq_hits::.cpu.data     73813162                       # number of WriteReq hits
system.cpu.dcache.WriteReq_hits::total       73813162                       # number of WriteReq hits
system.cpu.dcache.WriteReq_misses::.cpu.data     10523456                       # number of WriteReq misses
system.cpu.dcache.WriteReq_misses::total     10523456                       # number of WriteReq misses
system.cpu.dcache.WriteReq_miss_latency::.cpu.data 1108856189000                       # number of WriteReq miss cycles
system.cpu.dcache.WriteReq_miss_latency::total 1108856189000                       # number of WriteReq miss cycles
system.cpu.dcache.WriteReq_accesses::.cpu.data     84336618                       # number of WriteReq accesses(hits+misses)
system.cpu.dcache.WriteReq_accesses::total     84336618                       # number of WriteReq accesses(hits+misses)
system.cpu.dcache.WriteReq_miss_rate::.cpu.data     0.124779                       # miss rate for WriteReq accesses
system.cpu.dcache.WriteReq_miss_rate::total     0.124779                       # miss rate for WriteReq accesses
system.cpu.dcache.WriteReq_avg_miss_latency::.cpu.data 105369.964867                       # average WriteReq miss latency
system.cpu.dcache.WriteReq_avg_miss_latency::total 105369.964867                       # average WriteReq miss latency
system.cpu.dcache.WriteReq_mshr_hits::.cpu.data      5260432                       # number of WriteReq MSHR hits
system.cpu.dcache.WriteReq_mshr_hits::total      5260432                       # number of WriteReq MSHR hits
system.cpu.dcache.WriteReq_mshr_misses::.cpu.data      5263024                       # number of WriteReq MSHR misses
system.cpu.dcache.WriteReq_mshr_misses::total      5263024                       # number of WriteReq MSHR misses
system.cpu.dcache.WriteReq_mshr_miss_latency::.cpu.data 541415533000                       # number of WriteReq MSHR miss cycles
system.cpu.dcache.WriteReq_mshr_miss_latency::total 541415533000                       # number of WriteReq MSHR miss cycles
system.cpu.dcache.WriteReq_mshr_miss_rate::.cpu.data     0.062405                       # mshr miss rate for WriteReq accesses
system.cpu.dcache.WriteReq_mshr_miss_rate::total     0.062405                       # mshr miss rate for WriteReq accesses
system.cpu.dcache.WriteReq_avg_mshr_miss_latency::.cpu.data 102871.568323                       # average WriteReq mshr miss latency
system.cpu.dcache.WriteReq_avg_mshr_miss_latency::total 102871.568323                       # average WriteReq mshr miss latency
system.cpu.dcache.SoftPFReq_hits::.cpu.data           38                       # number of SoftPFReq hits
system.cpu.dcache.SoftPFReq_hits::total            38                       # number of SoftPFReq hits
system.cpu.dcache.SoftPFReq_misses::.cpu.data           33                       # number of SoftPFReq misses
system.cpu.dcache.SoftPFReq_misses::total           33                       # number of SoftPFReq misses
system.cpu.dcache.SoftPFReq_accesses::.cpu.data           71                       # number of SoftPFReq accesses(hits+misses)
system.cpu.dcache.SoftPFReq_accesses::total           71                       # number of SoftPFReq accesses(hits+misses)
system.cpu.dcache.SoftPFReq_miss_rate::.cpu.data     0.464789                       # miss rate for SoftPFReq accesses
system.cpu.dcache.SoftPFReq_miss_rate::total     0.464789                       # miss rate for SoftPFReq accesses
system.cpu.dcache.SoftPFReq_mshr_misses::.cpu.data           30                       # number of SoftPFReq MSHR misses
system.cpu.dcache.SoftPFReq_mshr_misses::total           30                       # number of SoftPFReq MSHR misses
system.cpu.dcache.SoftPFReq_mshr_miss_latency::.cpu.data      3503000                       # number of SoftPFReq MSHR miss cycles
system.cpu.dcache.SoftPFReq_mshr_miss_latency::total      3503000                       # number of SoftPFReq MSHR miss cycles
system.cpu.dcache.SoftPFReq_mshr_miss_rate::.cpu.data     0.422535                       # mshr miss rate for SoftPFReq accesses
system.cpu.dcache.SoftPFReq_mshr_miss_rate::total     0.422535                       # mshr miss rate for SoftPFReq accesses
system.cpu.dcache.SoftPFReq_avg_mshr_miss_latency::.cpu.data 116766.666667                       # average SoftPFReq mshr miss latency
system.cpu.dcache.SoftPFReq_avg_mshr_miss_latency::total 116766.666667                       # average SoftPFReq mshr miss latency
system.cpu.dcache.LoadLockedReq_hits::.cpu.data           34                       # number of LoadLockedReq hits
system.cpu.dcache.LoadLockedReq_hits::total           34                       # number of LoadLockedReq hits
system.cpu.dcache.LoadLockedReq_accesses::.cpu.data           34                       # number of LoadLockedReq accesses(hits+misses)
system.cpu.dcache.LoadLockedReq_accesses::total           34                       # number of LoadLockedReq accesses(hits+misses)
system.cpu.dcache.StoreCondReq_hits::.cpu.data           34                       # number of StoreCondReq hits
system.cpu.dcache.StoreCondReq_hits::total           34                       # number of StoreCondReq hits
system.cpu.dcache.StoreCondReq_accesses::.cpu.data           34                       # number of StoreCondReq accesses(hits+misses)
system.cpu.dcache.StoreCondReq_accesses::total           34                       # number of StoreCondReq accesses(hits+misses)
system.cpu.dcache.power_state.pwrStateResidencyTicks::UNDEFINED 705316274000                       # Cumulative time (in ticks) in various power states
system.cpu.dcache.tags.tagsinuse          4076.916224                       # Cycle average of tags in use
system.cpu.dcache.tags.total_refs            81120447                       # Total number of references to valid blocks.
system.cpu.dcache.tags.sampled_refs           5263329                       # Sample count of references to valid blocks.
system.cpu.dcache.tags.avg_refs             15.412384                       # Average number of references to valid blocks.
system.cpu.dcache.tags.warmup_cycle            223000                       # Cycle when the warmup percentage was hit.
system.cpu.dcache.tags.occ_blocks::.cpu.data  4076.916224                       # Average occupied blocks per requestor
system.cpu.dcache.tags.occ_percent::.cpu.data     0.995341                       # Average percentage of cache occupancy
system.cpu.dcache.tags.occ_percent::total     0.995341                       # Average percentage of cache occupancy
system.cpu.dcache.tags.occ_task_id_blocks::1024         4096                       # Occupied blocks per task id
system.cpu.dcache.tags.age_task_id_blocks_1024::0           77                       # Occupied blocks per task id
system.cpu.dcache.tags.age_task_id_blocks_1024::1          677                       # Occupied blocks per task id
system.cpu.dcache.tags.age_task_id_blocks_1024::2         3342                       # Occupied blocks per task id
system.cpu.dcache.tags.occ_task_id_percent::1024            1                       # Percentage of cache occupancy per task id
system.cpu.dcache.tags.tag_accesses         350786945                       # Number of tag accesses
system.cpu.dcache.tags.data_accesses        350786945                       # Number of data accesses
system.cpu.dcache.tags.power_state.pwrStateResidencyTicks::UNDEFINED 705316274000                       # Cumulative time (in ticks) in various power states
system.cpu.dtb.instHits                             0                       # ITB inst hits
system.cpu.dtb.instMisses                           0                       # ITB inst misses
system.cpu.dtb.readHits                             0                       # DTB read hits
system.cpu.dtb.readMisses                           0                       # DTB read misses
system.cpu.dtb.writeHits                            0                       # DTB write hits
system.cpu.dtb.writeMisses                          0                       # DTB write misses
system.cpu.dtb.inserts                              0                       # Number of times an entry is inserted into the TLB
system.cpu.dtb.flushTlb                             0                       # Number of times complete TLB was flushed
system.cpu.dtb.flushTlbMva                          0                       # Number of times TLB was flushed by MVA
system.cpu.dtb.flushTlbMvaAsid                      0                       # Number of times TLB was flushed by MVA & ASID
system.cpu.dtb.flushTlbAsid                         0                       # Number of times TLB was flushed by ASID
system.cpu.dtb.flushedEntries                       0                       # Number of entries that have been flushed from TLB
system.cpu.dtb.alignFaults                          0                       # Number of TLB faults due to alignment restrictions
system.cpu.dtb.prefetchFaults                       0                       # Number of TLB faults due to prefetch
system.cpu.dtb.domainFaults                         0                       # Number of TLB faults due to domain restrictions
system.cpu.dtb.permsFaults                          0                       # Number of TLB faults due to permissions restrictions
system.cpu.dtb.readAccesses                         0                       # DTB read accesses
system.cpu.dtb.writeAccesses                        0                       # DTB write accesses
system.cpu.dtb.instAccesses                         0                       # ITB inst accesses
system.cpu.dtb.hits                                 0                       # Total TLB (inst and data) hits
system.cpu.dtb.misses                               0                       # Total TLB (inst and data) misses
system.cpu.dtb.accesses                             0                       # Total TLB (inst and data) accesses
system.cpu.dtb.stage2_mmu.stage2_tlb.instHits            0                       # ITB inst hits
system.cpu.dtb.stage2_mmu.stage2_tlb.instMisses            0                       # ITB inst misses
system.cpu.dtb.stage2_mmu.stage2_tlb.readHits            0                       # DTB read hits
system.cpu.dtb.stage2_mmu.stage2_tlb.readMisses            0                       # DTB read misses
system.cpu.dtb.stage2_mmu.stage2_tlb.writeHits            0                       # DTB write hits
system.cpu.dtb.stage2_mmu.stage2_tlb.writeMisses            0                       # DTB write misses
system.cpu.dtb.stage2_mmu.stage2_tlb.inserts            0                       # Number of times an entry is inserted into the TLB
system.cpu.dtb.stage2_mmu.stage2_tlb.flushTlb            0                       # Number of times complete TLB was flushed
system.cpu.dtb.stage2_mmu.stage2_tlb.flushTlbMva            0                       # Number of times TLB was flushed by MVA
system.cpu.dtb.stage2_mmu.stage2_tlb.flushTlbMvaAsid            0                       # Number of times TLB was flushed by MVA & ASID
system.cpu.dtb.stage2_mmu.stage2_tlb.flushTlbAsid            0                       # Number of times TLB was flushed by ASID
system.cpu.dtb.stage2_mmu.stage2_tlb.flushedEntries            0                       # Number of entries that have been flushed from TLB
system.cpu.dtb.stage2_mmu.stage2_tlb.alignFaults            0                       # Number of TLB faults due to alignment restrictions
system.cpu.dtb.stage2_mmu.stage2_tlb.prefetchFaults            0                       # Number of TLB faults due to prefetch
system.cpu.dtb.stage2_mmu.stage2_tlb.domainFaults            0                       # Number of TLB faults due to domain restrictions
system.cpu.dtb.stage2_mmu.stage2_tlb.permsFaults            0                       # Number of TLB faults due to permissions restrictions
system.cpu.dtb.stage2_mmu.stage2_tlb.readAccesses            0                       # DTB read accesses
system.cpu.dtb.stage2_mmu.stage2_tlb.writeAccesses            0                       # DTB write accesses
system.cpu.dtb.stage2_mmu.stage2_tlb.instAccesses            0                       # ITB inst accesses
system.cpu.dtb.stage2_mmu.stage2_tlb.hits            0                       # Total TLB (inst and data) hits
system.cpu.dtb.stage2_mmu.stage2_tlb.misses            0                       # Total TLB (inst and data) misses
system.cpu.dtb.stage2_mmu.stage2_tlb.accesses            0                       # Total TLB (inst and data) accesses
system.cpu.dtb.stage2_mmu.stage2_tlb.walker.walks            0                       # Table walker walks requested
system.cpu.dtb.stage2_mmu.stage2_tlb.walker.requestOrigin_Requested::Data            0                       # Table walker requests started/completed, data/inst
system.cpu.dtb.stage2_mmu.stage2_tlb.walker.requestOrigin_Requested::Inst            0                       # Table walker requests started/completed, data/inst
system.cpu.dtb.stage2_mmu.stage2_tlb.walker.requestOrigin_Requested::total            0                       # Table walker requests started/completed, data/inst
system.cpu.dtb.stage2_mmu.stage2_tlb.walker.requestOrigin_Completed::Data            0                       # Table walker requests started/completed, data/inst
system.cpu.dtb.stage2_mmu.stage2_tlb.walker.requestOrigin_Completed::Inst            0                       # Table walker requests started/completed, data/inst
system.cpu.dtb.stage2_mmu.stage2_tlb.walker.requestOrigin_Completed::total            0                       # Table walker requests started/completed, data/inst
system.cpu.dtb.stage2_mmu.stage2_tlb.walker.requestOrigin::total            0                       # Table walker requests started/completed, data/inst
system.cpu.dtb.stage2_mmu.stage2_tlb.walker.power_state.pwrStateResidencyTicks::UNDEFINED 705316274000                       # Cumulative time (in ticks) in various power states
system.cpu.dtb.walker.walks                         0                       # Table walker walks requested
system.cpu.dtb.walker.requestOrigin_Requested::Data            0                       # Table walker requests started/completed, data/inst
system.cpu.dtb.walker.requestOrigin_Requested::Inst            0                       # Table walker requests started/completed, data/inst
system.cpu.dtb.walker.requestOrigin_Requested::total            0                       # Table walker requests started/completed, data/inst
system.cpu.dtb.walker.requestOrigin_Completed::Data            0                       # Table walker requests started/completed, data/inst
system.cpu.dtb.walker.requestOrigin_Completed::Inst            0                       # Table walker requests started/completed, data/inst
system.cpu.dtb.walker.requestOrigin_Completed::total            0                       # Table walker requests started/completed, data/inst
system.cpu.dtb.walker.requestOrigin::total            0                       # Table walker requests started/completed, data/inst
system.cpu.dtb.walker.power_state.pwrStateResidencyTicks::UNDEFINED 705316274000                       # Cumulative time (in ticks) in various power states
system.cpu.fetch2.intInstructions            45070948                       # Number of integer instructions successfully decoded
system.cpu.fetch2.fpInstructions                    0                       # Number of floating point instructions successfully decoded
system.cpu.fetch2.vecInstructions                   0                       # Number of SIMD instructions successfully decoded
system.cpu.fetch2.loadInstructions            2086398                       # Number of memory load instructions successfully decoded
system.cpu.fetch2.storeInstructions            169104                       # Number of memory store instructions successfully decoded
system.cpu.fetch2.amoInstructions                   0                       # Number of memory atomic instructions successfully decoded
system.cpu.icache.demand_hits::.cpu.inst     32144817                       # number of demand (read+write) hits
system.cpu.icache.demand_hits::total         32144817                       # number of demand (read+write) hits
system.cpu.icache.overall_hits::.cpu.inst     32144817                       # number of overall hits
system.cpu.icache.overall_hits::total        32144817                       # number of overall hits
system.cpu.icache.demand_misses::.cpu.inst          608                       # number of demand (read+write) misses
system.cpu.icache.demand_misses::total            608                       # number of demand (read+write) misses
system.cpu.icache.overall_misses::.cpu.inst          608                       # number of overall misses
system.cpu.icache.overall_misses::total           608                       # number of overall misses
system.cpu.icache.demand_miss_latency::.cpu.inst     62134000                       # number of demand (read+write) miss cycles
system.cpu.icache.demand_miss_latency::total     62134000                       # number of demand (read+write) miss cycles
system.cpu.icache.overall_miss_latency::.cpu.inst     62134000                       # number of overall miss cycles
system.cpu.icache.overall_miss_latency::total     62134000                       # number of overall miss cycles
system.cpu.icache.demand_accesses::.cpu.inst     32145425                       # number of demand (read+write) accesses
system.cpu.icache.demand_accesses::total     32145425                       # number of demand (read+write) accesses
system.cpu.icache.overall_accesses::.cpu.inst     32145425                       # number of overall (read+write) accesses
system.cpu.icache.overall_accesses::total     32145425                       # number of overall (read+write) accesses
system.cpu.icache.demand_miss_rate::.cpu.inst     0.000019                       # miss rate for demand accesses
system.cpu.icache.demand_miss_rate::total     0.000019                       # miss rate for demand accesses
system.cpu.icache.overall_miss_rate::.cpu.inst     0.000019                       # miss rate for overall accesses
system.cpu.icache.overall_miss_rate::total     0.000019                       # miss rate for overall accesses
system.cpu.icache.demand_avg_miss_latency::.cpu.inst 102194.078947                       # average overall miss latency
system.cpu.icache.demand_avg_miss_latency::total 102194.078947                       # average overall miss latency
system.cpu.icache.overall_avg_miss_latency::.cpu.inst 102194.078947                       # average overall miss latency
system.cpu.icache.overall_avg_miss_latency::total 102194.078947                       # average overall miss latency
system.cpu.icache.blocked_cycles::no_mshrs            0                       # number of cycles access was blocked
system.cpu.icache.blocked_cycles::no_targets            0                       # number of cycles access was blocked
system.cpu.icache.blocked::no_mshrs                 0                       # number of cycles access was blocked
system.cpu.icache.blocked::no_targets               0                       # number of cycles access was blocked
system.cpu.icache.avg_blocked_cycles::no_mshrs          nan                       # average number of cycles each access was blocked
system.cpu.icache.avg_blocked_cycles::no_targets          nan                       # average number of cycles each access was blocked
system.cpu.icache.demand_mshr_misses::.cpu.inst          608                       # number of demand (read+write) MSHR misses
system.cpu.icache.demand_mshr_misses::total          608                       # number of demand (read+write) MSHR misses
system.cpu.icache.overall_mshr_misses::.cpu.inst          608                       # number of overall MSHR misses
system.cpu.icache.overall_mshr_misses::total          608                       # number of overall MSHR misses
system.cpu.icache.demand_mshr_miss_latency::.cpu.inst     60918000                       # number of demand (read+write) MSHR miss cycles
system.cpu.icache.demand_mshr_miss_latency::total     60918000                       # number of demand (read+write) MSHR miss cycles
system.cpu.icache.overall_mshr_miss_latency::.cpu.inst     60918000                       # number of overall MSHR miss cycles
system.cpu.icache.overall_mshr_miss_latency::total     60918000                       # number of overall MSHR miss cycles
system.cpu.icache.demand_mshr_miss_rate::.cpu.inst     0.000019                       # mshr miss rate for demand accesses
system.cpu.icache.demand_mshr_miss_rate::total     0.000019                       # mshr miss rate for demand accesses
system.cpu.icache.overall_mshr_miss_rate::.cpu.inst     0.000019                       # mshr miss rate for overall accesses
system.cpu.icache.overall_mshr_miss_rate::total     0.000019                       # mshr miss rate for overall accesses
system.cpu.icache.demand_avg_mshr_miss_latency::.cpu.inst 100194.078947                       # average overall mshr miss latency
system.cpu.icache.demand_avg_mshr_miss_latency::total 100194.078947                       # average overall mshr miss latency
system.cpu.icache.overall_avg_mshr_miss_latency::.cpu.inst 100194.078947                       # average overall mshr miss latency
system.cpu.icache.overall_avg_mshr_miss_latency::total 100194.078947                       # average overall mshr miss latency
system.cpu.icache.replacements                      0                       # number of replacements
system.cpu.icache.ReadReq_hits::.cpu.inst     32144817                       # number of ReadReq hits
system.cpu.icache.ReadReq_hits::total        32144817                       # number of ReadReq hits
system.cpu.icache.ReadReq_misses::.cpu.inst          608                       # number of ReadReq misses
system.cpu.icache.ReadReq_misses::total           608                       # number of ReadReq misses
system.cpu.icache.ReadReq_miss_latency::.cpu.inst     62134000                       # number of ReadReq miss cycles
system.cpu.icache.ReadReq_miss_latency::total     62134000                       # number of ReadReq miss cycles
system.cpu.icache.ReadReq_accesses::.cpu.inst     32145425                       # number of ReadReq accesses(hits+misses)
system.cpu.icache.ReadReq_accesses::total     32145425                       # number of ReadReq accesses(hits+misses)
system.cpu.icache.ReadReq_miss_rate::.cpu.inst     0.000019                       # miss rate for ReadReq accesses
system.cpu.icache.ReadReq_miss_rate::total     0.000019                       # miss rate for ReadReq accesses
system.cpu.icache.ReadReq_avg_miss_latency::.cpu.inst 102194.078947                       # average ReadReq miss latency
system.cpu.icache.ReadReq_avg_miss_latency::total 102194.078947                       # average ReadReq miss latency
system.cpu.icache.ReadReq_mshr_misses::.cpu.inst          608                       # number of ReadReq MSHR misses
system.cpu.icache.ReadReq_mshr_misses::total          608                       # number of ReadReq MSHR misses
system.cpu.icache.ReadReq_mshr_miss_latency::.cpu.inst     60918000                       # number of ReadReq MSHR miss cycles
system.cpu.icache.ReadReq_mshr_miss_latency::total     60918000                       # number of ReadReq MSHR miss cycles
system.cpu.icache.ReadReq_mshr_miss_rate::.cpu.inst     0.000019                       # mshr miss rate for ReadReq accesses
system.cpu.icache.ReadReq_mshr_miss_rate::total     0.000019                       # mshr miss rate for ReadReq accesses
system.cpu.icache.ReadReq_avg_mshr_miss_latency::.cpu.inst 100194.078947                       # average ReadReq mshr miss latency
system.cpu.icache.ReadReq_avg_mshr_miss_latency::total 100194.078947                       # average ReadReq mshr miss latency
system.cpu.icache.power_state.pwrStateResidencyTicks::UNDEFINED 705316274000                       # Cumulative time (in ticks) in various power states
system.cpu.icache.tags.tagsinuse           505.544268                       # Cycle average of tags in use
system.cpu.icache.tags.total_refs            32145425                       # Total number of references to valid blocks.
system.cpu.icache.tags.sampled_refs               608                       # Sample count of references to valid blocks.
system.cpu.icache.tags.avg_refs          52870.764803                       # Average number of references to valid blocks.
system.cpu.icache.tags.warmup_cycle            108000                       # Cycle when the warmup percentage was hit.
system.cpu.icache.tags.occ_blocks::.cpu.inst   505.544268                       # Average occupied blocks per requestor
system.cpu.icache.tags.occ_percent::.cpu.inst     0.123424                       # Average percentage of cache occupancy
system.cpu.icache.tags.occ_percent::total     0.123424                       # Average percentage of cache occupancy
system.cpu.icache.tags.occ_task_id_blocks::1024          608                       # Occupied blocks per task id
system.cpu.icache.tags.age_task_id_blocks_1024::4          608                       # Occupied blocks per task id
system.cpu.icache.tags.occ_task_id_percent::1024     0.148438                       # Percentage of cache occupancy per task id
system.cpu.icache.tags.tag_accesses         128582308                       # Number of tag accesses
system.cpu.icache.tags.data_accesses        128582308                       # Number of data accesses
system.cpu.icache.tags.power_state.pwrStateResidencyTicks::UNDEFINED 705316274000                       # Cumulative time (in ticks) in various power states
system.cpu.itb.instHits                             0                       # ITB inst hits
system.cpu.itb.instMisses                           0                       # ITB inst misses
system.cpu.itb.readHits                             0                       # DTB read hits
system.cpu.itb.readMisses                           0                       # DTB read misses
system.cpu.itb.writeHits                            0                       # DTB write hits
system.cpu.itb.writeMisses                          0                       # DTB write misses
system.cpu.itb.inserts                              0                       # Number of times an entry is inserted into the TLB
system.cpu.itb.flushTlb                             0                       # Number of times complete TLB was flushed
system.cpu.itb.flushTlbMva                          0                       # Number of times TLB was flushed by MVA
system.cpu.itb.flushTlbMvaAsid                      0                       # Number of times TLB was flushed by MVA & ASID
system.cpu.itb.flushTlbAsid                         0                       # Number of times TLB was flushed by ASID
system.cpu.itb.flushedEntries                       0                       # Number of entries that have been flushed from TLB
system.cpu.itb.alignFaults                          0                       # Number of TLB faults due to alignment restrictions
system.cpu.itb.prefetchFaults                       0                       # Number of TLB faults due to prefetch
system.cpu.itb.domainFaults                         0                       # Number of TLB faults due to domain restrictions
system.cpu.itb.permsFaults                          0                       # Number of TLB faults due to permissions restrictions
system.cpu.itb.readAccesses                         0                       # DTB read accesses
system.cpu.itb.writeAccesses                        0                       # DTB write accesses
system.cpu.itb.instAccesses                         0                       # ITB inst accesses
system.cpu.itb.hits                                 0                       # Total TLB (inst and data) hits
system.cpu.itb.misses                               0                       # Total TLB (inst and data) misses
system.cpu.itb.accesses                             0                       # Total TLB (inst and data) accesses
system.cpu.itb.stage2_mmu.stage2_tlb.instHits            0                       # ITB inst hits
system.cpu.itb.stage2_mmu.stage2_tlb.instMisses            0                       # ITB inst misses
system.cpu.itb.stage2_mmu.stage2_tlb.readHits            0                       # DTB read hits
system.cpu.itb.stage2_mmu.stage2_tlb.readMisses            0                       # DTB read misses
system.cpu.itb.stage2_mmu.stage2_tlb.writeHits            0                       # DTB write hits
system.cpu.itb.stage2_mmu.stage2_tlb.writeMisses            0                       # DTB write misses
system.cpu.itb.stage2_mmu.stage2_tlb.inserts            0                       # Number of times an entry is inserted into the TLB
system.cpu.itb.stage2_mmu.stage2_tlb.flushTlb            0                       # Number of times complete TLB was flushed
system.cpu.itb.stage2_mmu.stage2_tlb.flushTlbMva            0                       # Number of times TLB was flushed by MVA
system.cpu.itb.stage2_mmu.stage2_tlb.flushTlbMvaAsid            0                       # Number of times TLB was flushed by MVA & ASID
system.cpu.itb.stage2_mmu.stage2_tlb.flushTlbAsid            0                       # Number of times TLB was flushed by ASID
system.cpu.itb.stage2_mmu.stage2_tlb.flushedEntries            0                       # Number of entries that have been flushed from TLB
system.cpu.itb.stage2_mmu.stage2_tlb.alignFaults            0                       # Number of TLB faults due to alignment restrictions
system.cpu.itb.stage2_mmu.stage2_tlb.prefetchFaults            0                       # Number of TLB faults due to prefetch
system.cpu.itb.stage2_mmu.stage2_tlb.domainFaults            0                       # Number of TLB faults due to domain restrictions
system.cpu.itb.stage2_mmu.stage2_tlb.permsFaults            0                       # Number of TLB faults due to permissions restrictions
system.cpu.itb.stage2_mmu.stage2_tlb.readAccesses            0                       # DTB read accesses
system.cpu.itb.stage2_mmu.stage2_tlb.writeAccesses            0                       # DTB write accesses
system.cpu.itb.stage2_mmu.stage2_tlb.instAccesses            0                       # ITB inst accesses
system.cpu.itb.stage2_mmu.stage2_tlb.hits            0                       # Total TLB (inst and data) hits
system.cpu.itb.stage2_mmu.stage2_tlb.misses            0                       # Total TLB (inst and data) misses
system.cpu.itb.stage2_mmu.stage2_tlb.accesses            0                       # Total TLB (inst and data) accesses
system.cpu.itb.stage2_mmu.stage2_tlb.walker.walks            0                       # Table walker walks requested
system.cpu.itb.stage2_mmu.stage2_tlb.walker.requestOrigin_Requested::Data            0                       # Table walker requests started/completed, data/inst
system.cpu.itb.stage2_mmu.stage2_tlb.walker.requestOrigin_Requested::Inst            0                       # Table walker requests started/completed, data/inst
system.cpu.itb.stage2_mmu.stage2_tlb.walker.requestOrigin_Requested::total            0                       # Table walker requests started/completed, data/inst
system.cpu.itb.stage2_mmu.stage2_tlb.walker.requestOrigin_Completed::Data            0                       # Table walker requests started/completed, data/inst
system.cpu.itb.stage2_mmu.stage2_tlb.walker.requestOrigin_Completed::Inst            0                       # Table walker requests started/completed, data/inst
system.cpu.itb.stage2_mmu.stage2_tlb.walker.requestOrigin_Completed::total            0                       # Table walker requests started/completed, data/inst
system.cpu.itb.stage2_mmu.stage2_tlb.walker.requestOrigin::total            0                       # Table walker requests started/completed, data/inst
system.cpu.itb.stage2_mmu.stage2_tlb.walker.power_state.pwrStateResidencyTicks::UNDEFINED 705316274000                       # Cumulative time (in ticks) in various power states
system.cpu.itb.walker.walks                         0                       # Table walker walks requested
system.cpu.itb.walker.requestOrigin_Requested::Data            0                       # Table walker requests started/completed, data/inst
system.cpu.itb.walker.requestOrigin_Requested::Inst            0                       # Table walker requests started/completed, data/inst
system.cpu.itb.walker.requestOrigin_Requested::total            0                       # Table walker requests started/completed, data/inst
system.cpu.itb.walker.requestOrigin_Completed::Data            0                       # Table walker requests started/completed, data/inst
system.cpu.itb.walker.requestOrigin_Completed::Inst            0                       # Table walker requests started/completed, data/inst
system.cpu.itb.walker.requestOrigin_Completed::total            0                       # Table walker requests started/completed, data/inst
system.cpu.itb.walker.requestOrigin::total            0                       # Table walker requests started/completed, data/inst
system.cpu.itb.walker.power_state.pwrStateResidencyTicks::UNDEFINED 705316274000                       # Cumulative time (in ticks) in various power states
system.cpu.power_state.pwrStateResidencyTicks::ON 705316274000                       # Cumulative time (in ticks) in various power states
system.cpu.thread_0.numInsts                100000000                       # Number of Instructions committed
system.cpu.thread_0.numOps                  184218810                       # Number of Ops committed
system.cpu.thread_0.numMemRefs                      0                       # Number of Memory References
system.cpu_clk_domain.clock                      1000                       # Clock period in ticks
system.cpu_voltage_domain.voltage                   1                       # Voltage in Volts
system.l2.demand_hits::.cpu.inst                   20                       # number of demand (read+write) hits
system.l2.demand_hits::.cpu.data                   19                       # number of demand (read+write) hits
system.l2.demand_hits::total                       39                       # number of demand (read+write) hits
system.l2.overall_hits::.cpu.inst                  20                       # number of overall hits
system.l2.overall_hits::.cpu.data                  19                       # number of overall hits
system.l2.overall_hits::total                      39                       # number of overall hits
system.l2.demand_misses::.cpu.inst                588                       # number of demand (read+write) misses
system.l2.demand_misses::.cpu.data            5263311                       # number of demand (read+write) misses
system.l2.demand_misses::total                5263899                       # number of demand (read+write) misses
system.l2.overall_misses::.cpu.inst               588                       # number of overall misses
system.l2.overall_misses::.cpu.data           5263311                       # number of overall misses
system.l2.overall_misses::total               5263899                       # number of overall misses
system.l2.demand_miss_latency::.cpu.inst     58634000                       # number of demand (read+write) miss cycles
system.l2.demand_miss_latency::.cpu.data 525656585000                       # number of demand (read+write) miss cycles
system.l2.demand_miss_latency::total     525715219000                       # number of demand (read+write) miss cycles
system.l2.overall_miss_latency::.cpu.inst     58634000                       # number of overall miss cycles
system.l2.overall_miss_latency::.cpu.data 525656585000                       # number of overall miss cycles
system.l2.overall_miss_latency::total    525715219000                       # number of overall miss cycles
system.l2.demand_accesses::.cpu.inst              608                       # number of demand (read+write) accesses
system.l2.demand_accesses::.cpu.data          5263330                       # number of demand (read+write) accesses
system.l2.demand_accesses::total              5263938                       # number of demand (read+write) accesses
system.l2.overall_accesses::.cpu.inst             608                       # number of overall (read+write) accesses
system.l2.overall_accesses::.cpu.data         5263330                       # number of overall (read+write) accesses
system.l2.overall_accesses::total             5263938                       # number of overall (read+write) accesses
system.l2.demand_miss_rate::.cpu.inst        0.967105                       # miss rate for demand accesses
system.l2.demand_miss_rate::.cpu.data        0.999996                       # miss rate for demand accesses
system.l2.demand_miss_rate::total            0.999993                       # miss rate for demand accesses
system.l2.overall_miss_rate::.cpu.inst       0.967105                       # miss rate for overall accesses
system.l2.overall_miss_rate::.cpu.data       0.999996                       # miss rate for overall accesses
system.l2.overall_miss_rate::total           0.999993                       # miss rate for overall accesses
system.l2.demand_avg_miss_latency::.cpu.inst 99717.687075                       # average overall miss latency
system.l2.demand_avg_miss_latency::.cpu.data 99871.845878                       # average overall miss latency
system.l2.demand_avg_miss_latency::total 99871.828658                       # average overall miss latency
system.l2.overall_avg_miss_latency::.cpu.inst 99717.687075                       # average overall miss latency
system.l2.overall_avg_miss_latency::.cpu.data 99871.845878                       # average overall miss latency
system.l2.overall_avg_miss_latency::total 99871.828658                       # average overall miss latency
system.l2.blocked_cycles::no_mshrs                  0                       # number of cycles access was blocked
system.l2.blocked_cycles::no_targets                0                       # number of cycles access was blocked
system.l2.blocked::no_mshrs                         0                       # number of cycles access was blocked
system.l2.blocked::no_targets                       0                       # number of cycles access was blocked
system.l2.avg_blocked_cycles::no_mshrs            nan                       # average number of cycles each access was blocked
system.l2.avg_blocked_cycles::no_targets          nan                       # average number of cycles each access was blocked
system.l2.writebacks::.writebacks             5197516                       # number of writebacks
system.l2.writebacks::total                   5197516                       # number of writebacks
system.l2.demand_mshr_hits::.cpu.inst               1                       # number of demand (read+write) MSHR hits
system.l2.demand_mshr_hits::.cpu.data               6                       # number of demand (read+write) MSHR hits
system.l2.demand_mshr_hits::total                   7                       # number of demand (read+write) MSHR hits
system.l2.overall_mshr_hits::.cpu.inst              1                       # number of overall MSHR hits
system.l2.overall_mshr_hits::.cpu.data              6                       # number of overall MSHR hits
system.l2.overall_mshr_hits::total                  7                       # number of overall MSHR hits
system.l2.demand_mshr_misses::.cpu.inst           587                       # number of demand (read+write) MSHR misses
system.l2.demand_mshr_misses::.cpu.data       5263305                       # number of demand (read+write) MSHR misses
system.l2.demand_mshr_misses::total           5263892                       # number of demand (read+write) MSHR misses
system.l2.overall_mshr_misses::.cpu.inst          587                       # number of overall MSHR misses
system.l2.overall_mshr_misses::.cpu.data      5263305                       # number of overall MSHR misses
system.l2.overall_mshr_misses::total          5263892                       # number of overall MSHR misses
system.l2.demand_mshr_miss_latency::.cpu.inst     46815000                       # number of demand (read+write) MSHR miss cycles
system.l2.demand_mshr_miss_latency::.cpu.data 420390004000                       # number of demand (read+write) MSHR miss cycles
system.l2.demand_mshr_miss_latency::total 420436819000                       # number of demand (read+write) MSHR miss cycles
system.l2.overall_mshr_miss_latency::.cpu.inst     46815000                       # number of overall MSHR miss cycles
system.l2.overall_mshr_miss_latency::.cpu.data 420390004000                       # number of overall MSHR miss cycles
system.l2.overall_mshr_miss_latency::total 420436819000                       # number of overall MSHR miss cycles
system.l2.demand_mshr_miss_rate::.cpu.inst     0.965461                       # mshr miss rate for demand accesses
system.l2.demand_mshr_miss_rate::.cpu.data     0.999995                       # mshr miss rate for demand accesses
system.l2.demand_mshr_miss_rate::total       0.999991                       # mshr miss rate for demand accesses
system.l2.overall_mshr_miss_rate::.cpu.inst     0.965461                       # mshr miss rate for overall accesses
system.l2.overall_mshr_miss_rate::.cpu.data     0.999995                       # mshr miss rate for overall accesses
system.l2.overall_mshr_miss_rate::total      0.999991                       # mshr miss rate for overall accesses
system.l2.demand_avg_mshr_miss_latency::.cpu.inst 79752.981261                       # average overall mshr miss latency
system.l2.demand_avg_mshr_miss_latency::.cpu.data 79871.868341                       # average overall mshr miss latency
system.l2.demand_avg_mshr_miss_latency::total 79871.855084                       # average overall mshr miss latency
system.l2.overall_avg_mshr_miss_latency::.cpu.inst 79752.981261                       # average overall mshr miss latency
system.l2.overall_avg_mshr_miss_latency::.cpu.data 79871.868341                       # average overall mshr miss latency
system.l2.overall_avg_mshr_miss_latency::total 79871.855084                       # average overall mshr miss latency
system.l2.replacements                        5198355                       # number of replacements
system.l2.WritebackDirty_hits::.writebacks      5258957                       # number of WritebackDirty hits
system.l2.WritebackDirty_hits::total          5258957                       # number of WritebackDirty hits
system.l2.WritebackDirty_accesses::.writebacks      5258957                       # number of WritebackDirty accesses(hits+misses)
system.l2.WritebackDirty_accesses::total      5258957                       # number of WritebackDirty accesses(hits+misses)
system.l2.ReadExReq_misses::.cpu.data         5263024                       # number of ReadExReq misses
system.l2.ReadExReq_misses::total             5263024                       # number of ReadExReq misses
system.l2.ReadExReq_miss_latency::.cpu.data 525626458000                       # number of ReadExReq miss cycles
system.l2.ReadExReq_miss_latency::total  525626458000                       # number of ReadExReq miss cycles
system.l2.ReadExReq_accesses::.cpu.data       5263024                       # number of ReadExReq accesses(hits+misses)
system.l2.ReadExReq_accesses::total           5263024                       # number of ReadExReq accesses(hits+misses)
system.l2.ReadExReq_miss_rate::.cpu.data            1                       # miss rate for ReadExReq accesses
system.l2.ReadExReq_miss_rate::total                1                       # miss rate for ReadExReq accesses
system.l2.ReadExReq_avg_miss_latency::.cpu.data 99871.567753                       # average ReadExReq miss latency
system.l2.ReadExReq_avg_miss_latency::total 99871.567753                       # average ReadExReq miss latency
system.l2.ReadExReq_mshr_misses::.cpu.data      5263024                       # number of ReadExReq MSHR misses
system.l2.ReadExReq_mshr_misses::total        5263024                       # number of ReadExReq MSHR misses
system.l2.ReadExReq_mshr_miss_latency::.cpu.data 420365998000                       # number of ReadExReq MSHR miss cycles
system.l2.ReadExReq_mshr_miss_latency::total 420365998000                       # number of ReadExReq MSHR miss cycles
system.l2.ReadExReq_mshr_miss_rate::.cpu.data            1                       # mshr miss rate for ReadExReq accesses
system.l2.ReadExReq_mshr_miss_rate::total            1                       # mshr miss rate for ReadExReq accesses
system.l2.ReadExReq_avg_mshr_miss_latency::.cpu.data 79871.571553                       # average ReadExReq mshr miss latency
system.l2.ReadExReq_avg_mshr_miss_latency::total 79871.571553                       # average ReadExReq mshr miss latency
system.l2.ReadCleanReq_hits::.cpu.inst             20                       # number of ReadCleanReq hits
system.l2.ReadCleanReq_hits::total                 20                       # number of ReadCleanReq hits
system.l2.ReadCleanReq_misses::.cpu.inst          588                       # number of ReadCleanReq misses
system.l2.ReadCleanReq_misses::total              588                       # number of ReadCleanReq misses
system.l2.ReadCleanReq_miss_latency::.cpu.inst     58634000                       # number of ReadCleanReq miss cycles
system.l2.ReadCleanReq_miss_latency::total     58634000                       # number of ReadCleanReq miss cycles
system.l2.ReadCleanReq_accesses::.cpu.inst          608                       # number of ReadCleanReq accesses(hits+misses)
system.l2.ReadCleanReq_accesses::total            608                       # number of ReadCleanReq accesses(hits+misses)
system.l2.ReadCleanReq_miss_rate::.cpu.inst     0.967105                       # miss rate for ReadCleanReq accesses
system.l2.ReadCleanReq_miss_rate::total      0.967105                       # miss rate for ReadCleanReq accesses
system.l2.ReadCleanReq_avg_miss_latency::.cpu.inst 99717.687075                       # average ReadCleanReq miss latency
system.l2.ReadCleanReq_avg_miss_latency::total 99717.687075                       # average ReadCleanReq miss latency
system.l2.ReadCleanReq_mshr_hits::.cpu.inst            1                       # number of ReadCleanReq MSHR hits
system.l2.ReadCleanReq_mshr_hits::total             1                       # number of ReadCleanReq MSHR hits
system.l2.ReadCleanReq_mshr_misses::.cpu.inst          587                       # number of ReadCleanReq MSHR misses
system.l2.ReadCleanReq_mshr_misses::total          587                       # number of ReadCleanReq MSHR misses
system.l2.ReadCleanReq_mshr_miss_latency::.cpu.inst     46815000                       # number of ReadCleanReq MSHR miss cycles
system.l2.ReadCleanReq_mshr_miss_latency::total     46815000                       # number of ReadCleanReq MSHR miss cycles
system.l2.ReadCleanReq_mshr_miss_rate::.cpu.inst     0.965461                       # mshr miss rate for ReadCleanReq accesses
system.l2.ReadCleanReq_mshr_miss_rate::total     0.965461                       # mshr miss rate for ReadCleanReq accesses
system.l2.ReadCleanReq_avg_mshr_miss_latency::.cpu.inst 79752.981261                       # average ReadCleanReq mshr miss latency
system.l2.ReadCleanReq_avg_mshr_miss_latency::total 79752.981261                       # average ReadCleanReq mshr miss latency
system.l2.ReadSharedReq_hits::.cpu.data            19                       # number of ReadSharedReq hits
system.l2.ReadSharedReq_hits::total                19                       # number of ReadSharedReq hits
system.l2.ReadSharedReq_misses::.cpu.data          287                       # number of ReadSharedReq misses
system.l2.ReadSharedReq_misses::total             287                       # number of ReadSharedReq misses
system.l2.ReadSharedReq_miss_latency::.cpu.data     30127000                       # number of ReadSharedReq miss cycles
system.l2.ReadSharedReq_miss_latency::total     30127000                       # number of ReadSharedReq miss cycles
system.l2.ReadSharedReq_accesses::.cpu.data          306                       # number of ReadSharedReq accesses(hits+misses)
system.l2.ReadSharedReq_accesses::total           306                       # number of ReadSharedReq accesses(hits+misses)
system.l2.ReadSharedReq_miss_rate::.cpu.data     0.937908                       # miss rate for ReadSharedReq accesses
system.l2.ReadSharedReq_miss_rate::total     0.937908                       # miss rate for ReadSharedReq accesses
system.l2.ReadSharedReq_avg_miss_latency::.cpu.data 104972.125436                       # average ReadSharedReq miss latency
system.l2.ReadSharedReq_avg_miss_latency::total 104972.125436                       # average ReadSharedReq miss latency
system.l2.ReadSharedReq_mshr_hits::.cpu.data            6                       # number of ReadSharedReq MSHR hits
system.l2.ReadSharedReq_mshr_hits::total            6                       # number of ReadSharedReq MSHR hits
system.l2.ReadSharedReq_mshr_misses::.cpu.data          281                       # number of ReadSharedReq MSHR misses
system.l2.ReadSharedReq_mshr_misses::total          281                       # number of ReadSharedReq MSHR misses
system.l2.ReadSharedReq_mshr_miss_latency::.cpu.data     24006000                       # number of ReadSharedReq MSHR miss cycles
system.l2.ReadSharedReq_mshr_miss_latency::total     24006000                       # number of ReadSharedReq MSHR miss cycles
system.l2.ReadSharedReq_mshr_miss_rate::.cpu.data     0.918301                       # mshr miss rate for ReadSharedReq accesses
system.l2.ReadSharedReq_mshr_miss_rate::total     0.918301                       # mshr miss rate for ReadSharedReq accesses
system.l2.ReadSharedReq_avg_mshr_miss_latency::.cpu.data 85430.604982                       # average ReadSharedReq mshr miss latency
system.l2.ReadSharedReq_avg_mshr_miss_latency::total 85430.604982                       # average ReadSharedReq mshr miss latency
system.l2.power_state.pwrStateResidencyTicks::UNDEFINED 705316274000                       # Cumulative time (in ticks) in various power states
system.l2.tags.tagsinuse                 64653.122029                       # Cycle average of tags in use
system.l2.tags.total_refs                    10523108                       # Total number of references to valid blocks.
system.l2.tags.sampled_refs                   5263891                       # Sample count of references to valid blocks.
system.l2.tags.avg_refs                      1.999112                       # Average number of references to valid blocks.
system.l2.tags.warmup_cycle                     87000                       # Cycle when the warmup percentage was hit.
system.l2.tags.occ_blocks::.cpu.inst         9.552326                       # Average occupied blocks per requestor
system.l2.tags.occ_blocks::.cpu.data     64643.569703                       # Average occupied blocks per requestor
system.l2.tags.occ_percent::.cpu.inst        0.000146                       # Average percentage of cache occupancy
system.l2.tags.occ_percent::.cpu.data        0.986383                       # Average percentage of cache occupancy
system.l2.tags.occ_percent::total            0.986528                       # Average percentage of cache occupancy
system.l2.tags.occ_task_id_blocks::1024         65536                       # Occupied blocks per task id
system.l2.tags.age_task_id_blocks_1024::0           77                       # Occupied blocks per task id
system.l2.tags.age_task_id_blocks_1024::1          677                       # Occupied blocks per task id
system.l2.tags.age_task_id_blocks_1024::2         6782                       # Occupied blocks per task id
system.l2.tags.age_task_id_blocks_1024::3        58000                       # Occupied blocks per task id
system.l2.tags.occ_task_id_percent::1024            1                       # Percentage of cache occupancy per task id
system.l2.tags.tag_accesses                 173633747                       # Number of tag accesses
system.l2.tags.data_accesses                173633747                       # Number of data accesses
system.l2.tags.power_state.pwrStateResidencyTicks::UNDEFINED 705316274000                       # Cumulative time (in ticks) in various power states
system.mem_ctrls.avgPriority_.writebacks::samples   5197516.00                       # Average QoS priority value for accepted requests
system.mem_ctrls.avgPriority_.cpu.inst::samples       587.00                       # Average QoS priority value for accepted requests
system.mem_ctrls.avgPriority_.cpu.data::samples   5263304.00                       # Average QoS priority value for accepted requests
system.mem_ctrls.priorityMinLatency      0.000000018750                       # per QoS priority minimum request to response latency (s)
system.mem_ctrls.priorityMaxLatency      0.000501796500                       # per QoS priority maximum request to response latency (s)
system.mem_ctrls.numReadWriteTurnArounds       324366                       # Number of turnarounds from READ to WRITE
system.mem_ctrls.numWriteReadTurnArounds       324366                       # Number of turnarounds from WRITE to READ
system.mem_ctrls.numStayReadState            15579424                       # Number of times bus staying in READ state
system.mem_ctrls.numStayWriteState            4873388                       # Number of times bus staying in WRITE state
system.mem_ctrls.readReqs                     5263891                       # Number of read requests accepted
system.mem_ctrls.writeReqs                    5197516                       # Number of write requests accepted
system.mem_ctrls.readBursts                   5263891                       # Number of controller read bursts, including those serviced by the write queue
system.mem_ctrls.writeBursts                  5197516                       # Number of controller write bursts, including those merged in the write queue
system.mem_ctrls.servicedByWrQ                      0                       # Number of controller read bursts serviced by the write queue
system.mem_ctrls.mergedWrBursts                     0                       # Number of controller write bursts merged with an existing one
system.mem_ctrls.neitherReadNorWriteReqs            0                       # Number of requests that are neither read nor write
system.mem_ctrls.avgRdQLen                       1.00                       # Average read queue length when enqueuing
system.mem_ctrls.avgWrQLen                      25.29                       # Average write queue length when enqueuing
system.mem_ctrls.numRdRetry                         0                       # Number of times read queue was full causing retry
system.mem_ctrls.numWrRetry                         0                       # Number of times write queue was full causing retry
system.mem_ctrls.readPktSize::0                     0                       # Read request sizes (log2)
system.mem_ctrls.readPktSize::1                     0                       # Read request sizes (log2)
system.mem_ctrls.readPktSize::2                     0                       # Read request sizes (log2)
system.mem_ctrls.readPktSize::3                     0                       # Read request sizes (log2)
system.mem_ctrls.readPktSize::4                     0                       # Read request sizes (log2)
system.mem_ctrls.readPktSize::5                     0                       # Read request sizes (log2)
system.mem_ctrls.readPktSize::6               5263891                       # Read request sizes (log2)
system.mem_ctrls.writePktSize::0                    0                       # Write request sizes (log2)
system.mem_ctrls.writePktSize::1                    0                       # Write request sizes (log2)
system.mem_ctrls.writePktSize::2                    0                       # Write request sizes (log2)
system.mem_ctrls.writePktSize::3                    0                       # Write request sizes (log2)
system.mem_ctrls.writePktSize::4                    0                       # Write request sizes (log2)
system.mem_ctrls.writePktSize::5                    0                       # Write request sizes (log2)
system.mem_ctrls.writePktSize::6              5197516                       # Write request sizes (log2)
system.mem_ctrls.rdQLenPdf::0                 5263652                       # What read queue length does an incoming req see
system.mem_ctrls.rdQLenPdf::1                     216                       # What read queue length does an incoming req see
system.mem_ctrls.rdQLenPdf::2                      22                       # What read queue length does an incoming req see
system.mem_ctrls.rdQLenPdf::3                       1                       # What read queue length does an incoming req see
system.mem_ctrls.rdQLenPdf::4                       0                       # What read queue length does an incoming req see
system.mem_ctrls.rdQLenPdf::5                       0                       # What read queue length does an incoming req see
system.mem_ctrls.rdQLenPdf::6                       0                       # What read queue length does an incoming req see
system.mem_ctrls.rdQLenPdf::7                       0                       # What read queue length does an incoming req see
system.mem_ctrls.rdQLenPdf::8                       0                       # What read queue length does an incoming req see
system.mem_ctrls.rdQLenPdf::9                       0                       # What read queue length does an incoming req see
system.mem_ctrls.rdQLenPdf::10                      0                       # What read queue length does an incoming req see
system.mem_ctrls.rdQLenPdf::11                      0                       # What read queue length does an incoming req see
system.mem_ctrls.rdQLenPdf::12                      0                       # What read queue length does an incoming req see
system.mem_ctrls.rdQLenPdf::13                      0                       # What read queue length does an incoming req see
system.mem_ctrls.rdQLenPdf::14                      0                       # What read queue length does an incoming req see
system.mem_ctrls.rdQLenPdf::15                      0                       # What read queue length does an incoming req see
system.mem_ctrls.rdQLenPdf::16                      0                       # What read queue length does an incoming req see
system.mem_ctrls.rdQLenPdf::17                      0                       # What read queue length does an incoming req see
system.mem_ctrls.rdQLenPdf::18                      0                       # What read queue length does an incoming req see
[...]
system.mem_ctrls.dram.bw_inst_read::total        53264                       # Instruction read bandwidth from this memory (bytes/s)
system.mem_ctrls.dram.bw_write::.writebacks    471619664                       # Write bandwidth from this memory (bytes/s)
system.mem_ctrls.dram.bw_write::total       471619664                       # Write bandwidth from this memory (bytes/s)
system.mem_ctrls.dram.bw_total::.writebacks    471619664                       # Total bandwidth to/from this memory (bytes/s)
system.mem_ctrls.dram.bw_total::.cpu.inst        53264                       # Total bandwidth to/from this memory (bytes/s)
system.mem_ctrls.dram.bw_total::.cpu.data    477589230                       # Total bandwidth to/from this memory (bytes/s)
system.mem_ctrls.dram.bw_total::total       949262158                       # Total bandwidth to/from this memory (bytes/s)
system.mem_ctrls.dram.readBursts              5263891                       # Number of DRAM read bursts
system.mem_ctrls.dram.writeBursts             5197486                       # Number of DRAM write bursts
system.mem_ctrls.dram.perBankRdBursts::0       328922                       # Per bank write bursts
system.mem_ctrls.dram.perBankRdBursts::1       329088                       # Per bank write bursts
system.mem_ctrls.dram.perBankRdBursts::2       329059                       # Per bank write bursts
system.mem_ctrls.dram.perBankRdBursts::3       329078                       # Per bank write bursts
system.mem_ctrls.dram.perBankRdBursts::4       328991                       # Per bank write bursts
system.mem_ctrls.dram.perBankRdBursts::5       329077                       # Per bank write bursts
system.mem_ctrls.dram.perBankRdBursts::6       329081                       # Per bank write bursts
system.mem_ctrls.dram.perBankRdBursts::7       329025                       # Per bank write bursts
system.mem_ctrls.dram.perBankRdBursts::8       328902                       # Per bank write bursts
system.mem_ctrls.dram.perBankRdBursts::9       328864                       # Per bank write bursts
system.mem_ctrls.dram.perBankRdBursts::10       328903                       # Per bank write bursts
system.mem_ctrls.dram.perBankRdBursts::11       328922                       # Per bank write bursts
system.mem_ctrls.dram.perBankRdBursts::12       329020                       # Per bank write bursts
system.mem_ctrls.dram.perBankRdBursts::13       329023                       # Per bank write bursts
system.mem_ctrls.dram.perBankRdBursts::14       328993                       # Per bank write bursts
system.mem_ctrls.dram.perBankRdBursts::15       328943                       # Per bank write bursts
system.mem_ctrls.dram.perBankWrBursts::0       324741                       # Per bank write bursts
system.mem_ctrls.dram.perBankWrBursts::1       324893                       # Per bank write bursts
system.mem_ctrls.dram.perBankWrBursts::2       324878                       # Per bank write bursts
system.mem_ctrls.dram.perBankWrBursts::3       324958                       # Per bank write bursts
system.mem_ctrls.dram.perBankWrBursts::4       324878                       # Per bank write bursts
system.mem_ctrls.dram.perBankWrBursts::5       324937                       # Per bank write bursts
system.mem_ctrls.dram.perBankWrBursts::6       324938                       # Per bank write bursts
system.mem_ctrls.dram.perBankWrBursts::7       324910                       # Per bank write bursts
system.mem_ctrls.dram.perBankWrBursts::8       324737                       # Per bank write bursts
system.mem_ctrls.dram.perBankWrBursts::9       324736                       # Per bank write bursts
system.mem_ctrls.dram.perBankWrBursts::10       324736                       # Per bank write bursts
system.mem_ctrls.dram.perBankWrBursts::11       324791                       # Per bank write bursts
system.mem_ctrls.dram.perBankWrBursts::12       324865                       # Per bank write bursts
system.mem_ctrls.dram.perBankWrBursts::13       324858                       # Per bank write bursts
system.mem_ctrls.dram.perBankWrBursts::14       324813                       # Per bank write bursts
system.mem_ctrls.dram.perBankWrBursts::15       324817                       # Per bank write bursts
system.mem_ctrls.dram.totQLat             51900452000                       # Total ticks spent queuing
system.mem_ctrls.dram.totBusLat           26319455000                       # Total ticks spent in databus transfers
system.mem_ctrls.dram.totMemAccLat       150598408250                       # Total ticks spent from burst creation until serviced by the DRAM
system.mem_ctrls.dram.avgQLat                 9859.71                       # Average queueing delay per DRAM burst
system.mem_ctrls.dram.avgBusLat               5000.00                       # Average bus latency per DRAM burst
system.mem_ctrls.dram.avgMemAccLat           28609.71                       # Average memory access latency per DRAM burst
system.mem_ctrls.dram.readRowHits             4812175                       # Number of row buffer hits during reads
system.mem_ctrls.dram.writeRowHits            4839070                       # Number of row buffer hits during writes
system.mem_ctrls.dram.readRowHitRate            91.42                       # Row buffer hit rate for reads
system.mem_ctrls.dram.writeRowHitRate           93.10                       # Row buffer hit rate for writes
system.mem_ctrls.dram.bytesPerActivate::samples       810131                       # Bytes accessed per row activation
system.mem_ctrls.dram.bytesPerActivate::mean   826.443249                       # Bytes accessed per row activation
system.mem_ctrls.dram.bytesPerActivate::gmean   696.705939                       # Bytes accessed per row activation
system.mem_ctrls.dram.bytesPerActivate::stdev   317.043047                       # Bytes accessed per row activation
system.mem_ctrls.dram.bytesPerActivate::0-127        42618      5.26%      5.26% # Bytes accessed per row activation
system.mem_ctrls.dram.bytesPerActivate::128-255        31162      3.85%      9.11% # Bytes accessed per row activation
system.mem_ctrls.dram.bytesPerActivate::256-383        36648      4.52%     13.63% # Bytes accessed per row activation
system.mem_ctrls.dram.bytesPerActivate::384-511        38195      4.71%     18.35% # Bytes accessed per row activation
system.mem_ctrls.dram.bytesPerActivate::512-639        34778      4.29%     22.64% # Bytes accessed per row activation
system.mem_ctrls.dram.bytesPerActivate::640-767        34882      4.31%     26.94% # Bytes accessed per row activation
system.mem_ctrls.dram.bytesPerActivate::768-895        29798      3.68%     30.62% # Bytes accessed per row activation
system.mem_ctrls.dram.bytesPerActivate::896-1023        52849      6.52%     37.15% # Bytes accessed per row activation
system.mem_ctrls.dram.bytesPerActivate::1024-1151       509201     62.85%    100.00% # Bytes accessed per row activation
system.mem_ctrls.dram.bytesPerActivate::total       810131                       # Bytes accessed per row activation
system.mem_ctrls.dram.bytesRead             336889024                       # Total number of bytes read from DRAM
system.mem_ctrls.dram.bytesWritten          332639104                       # Total number of bytes written to DRAM
system.mem_ctrls.dram.avgRdBW              477.642494                       # Average DRAM read bandwidth in MiBytes/s
system.mem_ctrls.dram.avgWrBW              471.616942                       # Average DRAM write bandwidth in MiBytes/s
system.mem_ctrls.dram.peakBW                 12800.00                       # Theoretical peak bandwidth in MiByte/s
system.mem_ctrls.dram.busUtil                    7.42                       # Data bus utilization in percentage
system.mem_ctrls.dram.busUtilRead                3.73                       # Data bus utilization in percentage for reads
system.mem_ctrls.dram.busUtilWrite               3.68                       # Data bus utilization in percentage for writes
system.mem_ctrls.dram.pageHitRate               92.26                       # Row buffer hit rate, read and write combined
system.mem_ctrls.dram.power_state.pwrStateResidencyTicks::UNDEFINED 705316274000                       # Cumulative time (in ticks) in various power states
system.mem_ctrls.dram.rank0.actEnergy      2892763860                       # Energy for activate commands per rank (pJ)
system.mem_ctrls.dram.rank0.preEnergy      1537536660                       # Energy for precharge commands per rank (pJ)
system.mem_ctrls.dram.rank0.readEnergy    18794771940                       # Energy for read commands per rank (pJ)
system.mem_ctrls.dram.rank0.writeEnergy   13567474260                       # Energy for write commands per rank (pJ)
system.mem_ctrls.dram.rank0.refreshEnergy 55676549760.000008                       # Energy for refresh commands per rank (pJ)
system.mem_ctrls.dram.rank0.actBackEnergy 164938933500                       # Energy for active background per rank (pJ)
system.mem_ctrls.dram.rank0.preBackEnergy 131945505600                       # Energy for precharge background per rank (pJ)
system.mem_ctrls.dram.rank0.actPowerDownEnergy            0                       # Energy for active power-down per rank (pJ)
system.mem_ctrls.dram.rank0.prePowerDownEnergy            0                       # Energy for precharge power-down per rank (pJ)
system.mem_ctrls.dram.rank0.selfRefreshEnergy            0                       # Energy for self refresh per rank (pJ)
system.mem_ctrls.dram.rank0.totalEnergy  389353535580                       # Total energy per rank (pJ)
system.mem_ctrls.dram.rank0.averagePower   552.026871                       # Core power per rank (mW)
system.mem_ctrls.dram.rank0.totalIdleTime            0                       # Total Idle time Per DRAM Rank
system.mem_ctrls.dram.rank0.pwrStateTime::IDLE 338406141500                       # Time in different power states
system.mem_ctrls.dram.rank0.pwrStateTime::REF  23551840000                       # Time in different power states
system.mem_ctrls.dram.rank0.pwrStateTime::SREF            0                       # Time in different power states
system.mem_ctrls.dram.rank0.pwrStateTime::PRE_PDN            0                       # Time in different power states
system.mem_ctrls.dram.rank0.pwrStateTime::ACT 343358292500                       # Time in different power states
system.mem_ctrls.dram.rank0.pwrStateTime::ACT_PDN            0                       # Time in different power states
system.mem_ctrls.dram.rank1.actEnergy      2891578620                       # Energy for activate commands per rank (pJ)
system.mem_ctrls.dram.rank1.preEnergy      1536910485                       # Energy for precharge commands per rank (pJ)
system.mem_ctrls.dram.rank1.readEnergy    18789409800                       # Energy for read commands per rank (pJ)
system.mem_ctrls.dram.rank1.writeEnergy   13563402660                       # Energy for write commands per rank (pJ)
system.mem_ctrls.dram.rank1.refreshEnergy 55676549760.000008                       # Energy for refresh commands per rank (pJ)
system.mem_ctrls.dram.rank1.actBackEnergy 164888501610                       # Energy for active background per rank (pJ)
system.mem_ctrls.dram.rank1.preBackEnergy 131987974560                       # Energy for precharge background per rank (pJ)
system.mem_ctrls.dram.rank1.actPowerDownEnergy            0                       # Energy for active power-down per rank (pJ)
system.mem_ctrls.dram.rank1.prePowerDownEnergy            0                       # Energy for precharge power-down per rank (pJ)
system.mem_ctrls.dram.rank1.selfRefreshEnergy            0                       # Energy for self refresh per rank (pJ)
system.mem_ctrls.dram.rank1.totalEnergy  389334327495                       # Total energy per rank (pJ)
system.mem_ctrls.dram.rank1.averagePower   551.999637                       # Core power per rank (mW)
system.mem_ctrls.dram.rank1.totalIdleTime            0                       # Total Idle time Per DRAM Rank
system.mem_ctrls.dram.rank1.pwrStateTime::IDLE 338519711000                       # Time in different power states
system.mem_ctrls.dram.rank1.pwrStateTime::REF  23551840000                       # Time in different power states
system.mem_ctrls.dram.rank1.pwrStateTime::SREF            0                       # Time in different power states
system.mem_ctrls.dram.rank1.pwrStateTime::PRE_PDN            0                       # Time in different power states
system.mem_ctrls.dram.rank1.pwrStateTime::ACT 343244723000                       # Time in different power states
system.mem_ctrls.dram.rank1.pwrStateTime::ACT_PDN            0                       # Time in different power states
system.mem_ctrls.power_state.pwrStateResidencyTicks::UNDEFINED 705316274000                       # Cumulative time (in ticks) in various power states
system.membus.trans_dist::ReadResp                868                       # Transaction distribution
system.membus.trans_dist::WritebackDirty      5197516                       # Transaction distribution
system.membus.trans_dist::CleanEvict              219                       # Transaction distribution
system.membus.trans_dist::ReadExReq           5263023                       # Transaction distribution
system.membus.trans_dist::ReadExResp          5263023                       # Transaction distribution
system.membus.trans_dist::ReadSharedReq           868                       # Transaction distribution
system.membus.pkt_count_system.l2.mem_side_port::system.mem_ctrls.port     15725517                       # Packet count per connected requestor and responder (bytes)
system.membus.pkt_count::total               15725517                       # Packet count per connected requestor and responder (bytes)
system.membus.pkt_size_system.l2.mem_side_port::system.mem_ctrls.port    669530048                       # Cumulative packet size per connected requestor and responder (bytes)
system.membus.pkt_size::total               669530048                       # Cumulative packet size per connected requestor and responder (bytes)
system.membus.snoops                                0                       # Total snoops (count)
system.membus.snoopTraffic                          0                       # Total snoop traffic (bytes)
system.membus.snoop_fanout::samples           5263891                       # Request fanout histogram
system.membus.snoop_fanout::mean                    0                       # Request fanout histogram
system.membus.snoop_fanout::stdev                   0                       # Request fanout histogram
system.membus.snoop_fanout::underflows              0      0.00%      0.00% # Request fanout histogram
system.membus.snoop_fanout::0                 5263891    100.00%    100.00% # Request fanout histogram
system.membus.snoop_fanout::1                       0      0.00%    100.00% # Request fanout histogram
system.membus.snoop_fanout::overflows               0      0.00%    100.00% # Request fanout histogram
system.membus.snoop_fanout::min_value               0                       # Request fanout histogram
system.membus.snoop_fanout::max_value               0                       # Request fanout histogram
system.membus.snoop_fanout::total             5263891                       # Request fanout histogram
system.membus.power_state.pwrStateResidencyTicks::UNDEFINED 705316274000                       # Cumulative time (in ticks) in various power states
system.membus.reqLayer0.occupancy         31251690000                       # Layer occupancy (ticks)
system.membus.reqLayer0.utilization               4.4                       # Layer utilization (%)
system.membus.respLayer1.occupancy        27699378000                       # Layer occupancy (ticks)
system.membus.respLayer1.utilization              3.9                       # Layer utilization (%)
system.tol2bus.trans_dist::ReadResp               914                       # Transaction distribution
system.tol2bus.trans_dist::WritebackDirty     10456473                       # Transaction distribution
system.tol2bus.trans_dist::CleanEvict            1115                       # Transaction distribution
system.tol2bus.trans_dist::ReadExReq          5263024                       # Transaction distribution
system.tol2bus.trans_dist::ReadExResp         5263023                       # Transaction distribution
system.tol2bus.trans_dist::ReadCleanReq           608                       # Transaction distribution
system.tol2bus.trans_dist::ReadSharedReq          306                       # Transaction distribution
system.tol2bus.pkt_count_system.cpu.icache.mem_side_port::system.l2.cpu_side_port         1216                       # Packet count per connected requestor and responder (bytes)
system.tol2bus.pkt_count_system.cpu.dcache.mem_side_port::system.l2.cpu_side_port     15785892                       # Packet count per connected requestor and responder (bytes)
system.tol2bus.pkt_count::total              15787108                       # Packet count per connected requestor and responder (bytes)
system.tol2bus.pkt_size_system.cpu.icache.mem_side_port::system.l2.cpu_side_port        38912                       # Cumulative packet size per connected requestor and responder (bytes)
system.tol2bus.pkt_size_system.cpu.dcache.mem_side_port::system.l2.cpu_side_port    673426304                       # Cumulative packet size per connected requestor and responder (bytes)
system.tol2bus.pkt_size::total              673465216                       # Cumulative packet size per connected requestor and responder (bytes)
system.tol2bus.snoops                         5198355                       # Total snoops (count)
system.tol2bus.snoopTraffic                 332641024                       # Total snoop traffic (bytes)
system.tol2bus.snoop_fanout::samples         10462293                       # Request fanout histogram
system.tol2bus.snoop_fanout::mean            0.000065                       # Request fanout histogram
system.tol2bus.snoop_fanout::stdev           0.008032                       # Request fanout histogram
system.tol2bus.snoop_fanout::underflows             0      0.00%      0.00% # Request fanout histogram
system.tol2bus.snoop_fanout::0               10461618     99.99%     99.99% # Request fanout histogram
system.tol2bus.snoop_fanout::1                    675      0.01%    100.00% # Request fanout histogram
system.tol2bus.snoop_fanout::2                      0      0.00%    100.00% # Request fanout histogram
system.tol2bus.snoop_fanout::overflows              0      0.00%    100.00% # Request fanout histogram
system.tol2bus.snoop_fanout::min_value              0                       # Request fanout histogram
system.tol2bus.snoop_fanout::max_value              1                       # Request fanout histogram
system.tol2bus.snoop_fanout::total           10462293                       # Request fanout histogram
system.tol2bus.power_state.pwrStateResidencyTicks::UNDEFINED 705316274000                       # Cumulative time (in ticks) in various power states
system.tol2bus.reqLayer0.occupancy        21041085000                       # Layer occupancy (ticks)
system.tol2bus.reqLayer0.utilization              3.0                       # Layer utilization (%)
system.tol2bus.respLayer0.occupancy           1824999                       # Layer occupancy (ticks)
system.tol2bus.respLayer0.utilization             0.0                       # Layer utilization (%)
system.tol2bus.respLayer1.occupancy       15789993993                       # Layer occupancy (ticks)
system.tol2bus.respLayer1.utilization             2.2                       # Layer utilization (%)
system.voltage_domain.voltage                       1                       # Voltage in Volts

---------- End Simulation Statistics   ----------
