
---------- Begin Simulation Statistics ----------
final_tick                                   26921000                       # Number of ticks from beginning of simulation (restored from checkpoints and never reset)
host_inst_rate                                 149913                       # Simulator instruction rate (inst/s)
host_mem_usage                                 653380                       # Number of bytes of host memory used
host_op_rate                                   173566                       # Simulator op (including micro ops) rate (op/s)
host_seconds                                     0.03                       # Real time elapsed on the host
host_tick_rate                              800535685                       # Simulator tick rate (ticks/s)
sim_freq                                 1000000000000                       # Frequency of simulated ticks
sim_insts                                        5028                       # Number of instructions simulated
sim_ops                                          5834                       # Number of ops (including micro ops) simulated
sim_seconds                                  0.000027                       # Number of seconds simulated
sim_ticks                                    26921000                       # Number of ticks simulated
system.cpu.committedInsts                        5028                       # Number of instructions committed
system.cpu.committedOps                          5834                       # Number of ops (including micro ops) committed
system.cpu.cpi                              10.708433                       # CPI: cycles per instruction
system.cpu.discardedOps                          1260                       # Number of ops (including micro ops) which were discarded before commit
system.cpu.idleCycles                           42332                       # Total number of cycles that the object has spent stopped
system.cpu.ipc                               0.093384                       # IPC: instructions per cycle
system.cpu.numCycles                            53842                       # number of cpu cycles simulated
system.cpu.numFetchSuspends                         0                       # Number of times Execute suspended instruction fetching
system.cpu.numWorkItemsCompleted                    0                       # number of work items this cpu completed
system.cpu.numWorkItemsStarted                      0                       # number of work items this cpu started
system.cpu.op_class_0::No_OpClass                   0      0.00%      0.00% # Class of committed instruction
system.cpu.op_class_0::IntAlu                    3789     64.95%     64.95% # Class of committed instruction
system.cpu.op_class_0::IntMult                      4      0.07%     65.02% # Class of committed instruction
system.cpu.op_class_0::IntDiv                       0      0.00%     65.02% # Class of committed instruction
system.cpu.op_class_0::FloatAdd                     0      0.00%     65.02% # Class of committed instruction
system.cpu.op_class_0::FloatCmp                     0      0.00%     65.02% # Class of committed instruction
system.cpu.op_class_0::FloatCvt                     0      0.00%     65.02% # Class of committed instruction
system.cpu.op_class_0::FloatMult                    0      0.00%     65.02% # Class of committed instruction
system.cpu.op_class_0::FloatMultAcc                 0      0.00%     65.02% # Class of committed instruction
system.cpu.op_class_0::FloatDiv                     0      0.00%     65.02% # Class of committed instruction
system.cpu.op_class_0::FloatMisc                    0      0.00%     65.02% # Class of committed instruction
system.cpu.op_class_0::FloatSqrt                    0      0.00%     65.02% # Class of committed instruction
system.cpu.op_class_0::SimdAdd                      0      0.00%     65.02% # Class of committed instruction
system.cpu.op_class_0::SimdAddAcc                   0      0.00%     65.02% # Class of committed instruction
system.cpu.op_class_0::SimdAlu                      0      0.00%     65.02% # Class of committed instruction
system.cpu.op_class_0::SimdCmp                      0      0.00%     65.02% # Class of committed instruction
system.cpu.op_class_0::SimdCvt                      0      0.00%     65.02% # Class of committed instruction
system.cpu.op_class_0::SimdMisc                     0      0.00%     65.02% # Class of committed instruction
system.cpu.op_class_0::SimdMult                     0      0.00%     65.02% # Class of committed instruction
system.cpu.op_class_0::SimdMultAcc                  0      0.00%     65.02% # Class of committed instruction
system.cpu.op_class_0::SimdShift                    0      0.00%     65.02% # Class of committed instruction
system.cpu.op_class_0::SimdShiftAcc                 0      0.00%     65.02% # Class of committed instruction
system.cpu.op_class_0::SimdDiv                      0      0.00%     65.02% # Class of committed instruction
system.cpu.op_class_0::SimdSqrt                     0      0.00%     65.02% # Class of committed instruction
system.cpu.op_class_0::SimdFloatAdd                 0      0.00%     65.02% # Class of committed instruction
system.cpu.op_class_0::SimdFloatAlu                 0      0.00%     65.02% # Class of committed instruction
system.cpu.op_class_0::SimdFloatCmp                 0      0.00%     65.02% # Class of committed instruction
system.cpu.op_class_0::SimdFloatCvt                 0      0.00%     65.02% # Class of committed instruction
system.cpu.op_class_0::SimdFloatDiv                 0      0.00%     65.02% # Class of committed instruction
system.cpu.op_class_0::SimdFloatMisc                3      0.05%     65.07% # Class of committed instruction
system.cpu.op_class_0::SimdFloatMult                0      0.00%     65.07% # Class of committed instruction
system.cpu.op_class_0::SimdFloatMultAcc             0      0.00%     65.07% # Class of committed instruction
system.cpu.op_class_0::SimdFloatSqrt                0      0.00%     65.07% # Class of committed instruction
system.cpu.op_class_0::SimdReduceAdd                0      0.00%     65.07% # Class of committed instruction
system.cpu.op_class_0::SimdReduceAlu                0      0.00%     65.07% # Class of committed instruction
system.cpu.op_class_0::SimdReduceCmp                0      0.00%     65.07% # Class of committed instruction
system.cpu.op_class_0::SimdFloatReduceAdd            0      0.00%     65.07% # Class of committed instruction
system.cpu.op_class_0::SimdFloatReduceCmp            0      0.00%     65.07% # Class of committed instruction
system.cpu.op_class_0::SimdAes                      0      0.00%     65.07% # Class of committed instruction
system.cpu.op_class_0::SimdAesMix                   0      0.00%     65.07% # Class of committed instruction
system.cpu.op_class_0::SimdSha1Hash                 0      0.00%     65.07% # Class of committed instruction
system.cpu.op_class_0::SimdSha1Hash2                0      0.00%     65.07% # Class of committed instruction
system.cpu.op_class_0::SimdSha256Hash               0      0.00%     65.07% # Class of committed instruction
system.cpu.op_class_0::SimdSha256Hash2              0      0.00%     65.07% # Class of committed instruction
system.cpu.op_class_0::SimdShaSigma2                0      0.00%     65.07% # Class of committed instruction
system.cpu.op_class_0::SimdShaSigma3                0      0.00%     65.07% # Class of committed instruction
system.cpu.op_class_0::SimdPredAlu                  0      0.00%     65.07% # Class of committed instruction
system.cpu.op_class_0::MemRead                   1085     18.60%     83.66% # Class of committed instruction
system.cpu.op_class_0::MemWrite                   953     16.34%    100.00% # Class of committed instruction
system.cpu.op_class_0::FloatMemRead                 0      0.00%    100.00% # Class of committed instruction
system.cpu.op_class_0::FloatMemWrite                0      0.00%    100.00% # Class of committed instruction
system.cpu.op_class_0::IprAccess                    0      0.00%    100.00% # Class of committed instruction
system.cpu.op_class_0::InstPrefetch                 0      0.00%    100.00% # Class of committed instruction
system.cpu.op_class_0::total                     5834                       # Class of committed instruction
system.cpu.tickCycles                           11510                       # Number of cycles that the object actually ticked
system.cpu.workload.numSyscalls                    13                       # Number of system calls
system.membus.snoop_filter.hit_multi_requests           25                       # Number of requests hitting in the snoop filter with multiple (>1) holders of the requested data.
system.membus.snoop_filter.hit_multi_snoops            0                       # Number of snoops hitting in the snoop filter with multiple (>1) holders of the requested data.
system.membus.snoop_filter.hit_single_requests          180                       # Number of requests hitting in the snoop filter with a single holder of the requested data.
system.membus.snoop_filter.hit_single_snoops            0                       # Number of snoops hitting in the snoop filter with a single holder of the requested data.
system.membus.snoop_filter.tot_requests           650                       # Total number of requests made to the snoop filter.
system.membus.snoop_filter.tot_snoops               0                       # Total number of snoops made to the snoop filter.
system.clk_domain.clock                          1000                       # Clock period in ticks
system.cpu.branchPred.lookups                    2151                       # Number of BP lookups
system.cpu.branchPred.condPredicted              1294                       # Number of conditional branches predicted
system.cpu.branchPred.condIncorrect               379                       # Number of conditional branches incorrect
system.cpu.branchPred.BTBLookups                 1112                       # Number of BTB lookups
system.cpu.branchPred.BTBHits                     368                       # Number of BTB hits
system.cpu.branchPred.BTBHitPct             33.093525                       # BTB Hit Percentage
system.cpu.branchPred.RASUsed                     214                       # Number of times the RAS was used to get a target.
system.cpu.branchPred.RASIncorrect                 14                       # Number of incorrect RAS predictions.
system.cpu.branchPred.indirectLookups             113                       # Number of indirect predictor lookups.
system.cpu.branchPred.indirectHits                  8                       # Number of indirect target hits.
system.cpu.branchPred.indirectMisses              105                       # Number of indirect misses.
system.cpu.branchPred.indirectMispredicted           57                       # Number of mispredicted indirect branches.
system.cpu.dcache.demand_hits::.cpu.data         1973                       # number of demand (read+write) hits
system.cpu.dcache.demand_hits::total             1973                       # number of demand (read+write) hits
system.cpu.dcache.overall_hits::.cpu.data         1973                       # number of overall hits
system.cpu.dcache.overall_hits::total            1973                       # number of overall hits
system.cpu.dcache.demand_misses::.cpu.data          177                       # number of demand (read+write) misses
system.cpu.dcache.demand_misses::total            177                       # number of demand (read+write) misses
system.cpu.dcache.overall_misses::.cpu.data          177                       # number of overall misses
system.cpu.dcache.overall_misses::total           177                       # number of overall misses
system.cpu.dcache.demand_miss_latency::.cpu.data     10273000                       # number of demand (read+write) miss cycles
system.cpu.dcache.demand_miss_latency::total     10273000                       # number of demand (read+write) miss cycles
system.cpu.dcache.overall_miss_latency::.cpu.data     10273000                       # number of overall miss cycles
system.cpu.dcache.overall_miss_latency::total     10273000                       # number of overall miss cycles
system.cpu.dcache.demand_accesses::.cpu.data         2150                       # number of demand (read+write) accesses
system.cpu.dcache.demand_accesses::total         2150                       # number of demand (read+write) accesses
system.cpu.dcache.overall_accesses::.cpu.data         2150                       # number of overall (read+write) accesses
system.cpu.dcache.overall_accesses::total         2150                       # number of overall (read+write) accesses
system.cpu.dcache.demand_miss_rate::.cpu.data     0.082326                       # miss rate for demand accesses
system.cpu.dcache.demand_miss_rate::total     0.082326                       # miss rate for demand accesses
system.cpu.dcache.overall_miss_rate::.cpu.data     0.082326                       # miss rate for overall accesses
system.cpu.dcache.overall_miss_rate::total     0.082326                       # miss rate for overall accesses
system.cpu.dcache.demand_avg_miss_latency::.cpu.data 58039.548023                       # average overall miss latency
system.cpu.dcache.demand_avg_miss_latency::total 58039.548023                       # average overall miss latency
system.cpu.dcache.overall_avg_miss_latency::.cpu.data 58039.548023                       # average overall miss latency
system.cpu.dcache.overall_avg_miss_latency::total 58039.548023                       # average overall miss latency
system.cpu.dcache.blocked_cycles::no_mshrs            0                       # number of cycles access was blocked
system.cpu.dcache.blocked_cycles::no_targets            0                       # number of cycles access was blocked
system.cpu.dcache.blocked::no_mshrs                 0                       # number of cycles access was blocked
system.cpu.dcache.blocked::no_targets               0                       # number of cycles access was blocked
system.cpu.dcache.avg_blocked_cycles::no_mshrs          nan                       # average number of cycles each access was blocked
system.cpu.dcache.avg_blocked_cycles::no_targets          nan                       # average number of cycles each access was blocked
system.cpu.dcache.demand_mshr_hits::.cpu.data           30                       # number of demand (read+write) MSHR hits
system.cpu.dcache.demand_mshr_hits::total           30                       # number of demand (read+write) MSHR hits
system.cpu.dcache.overall_mshr_hits::.cpu.data           30                       # number of overall MSHR hits
system.cpu.dcache.overall_mshr_hits::total           30                       # number of overall MSHR hits
system.cpu.dcache.demand_mshr_misses::.cpu.data          147                       # number of demand (read+write) MSHR misses
system.cpu.dcache.demand_mshr_misses::total          147                       # number of demand (read+write) MSHR misses
system.cpu.dcache.overall_mshr_misses::.cpu.data          147                       # number of overall MSHR misses
system.cpu.dcache.overall_mshr_misses::total          147                       # number of overall MSHR misses
system.cpu.dcache.demand_mshr_miss_latency::.cpu.data      8439000                       # number of demand (read+write) MSHR miss cycles
system.cpu.dcache.demand_mshr_miss_latency::total      8439000                       # number of demand (read+write) MSHR miss cycles
system.cpu.dcache.overall_mshr_miss_latency::.cpu.data      8439000                       # number of overall MSHR miss cycles
system.cpu.dcache.overall_mshr_miss_latency::total      8439000                       # number of overall MSHR miss cycles
system.cpu.dcache.demand_mshr_miss_rate::.cpu.data     0.068372                       # mshr miss rate for demand accesses
system.cpu.dcache.demand_mshr_miss_rate::total     0.068372                       # mshr miss rate for demand accesses
system.cpu.dcache.overall_mshr_miss_rate::.cpu.data     0.068372                       # mshr miss rate for overall accesses
system.cpu.dcache.overall_mshr_miss_rate::total     0.068372                       # mshr miss rate for overall accesses
system.cpu.dcache.demand_avg_mshr_miss_latency::.cpu.data 57408.163265                       # average overall mshr miss latency
system.cpu.dcache.demand_avg_mshr_miss_latency::total 57408.163265                       # average overall mshr miss latency
system.cpu.dcache.overall_avg_mshr_miss_latency::.cpu.data 57408.163265                       # average overall mshr miss latency
system.cpu.dcache.overall_avg_mshr_miss_latency::total 57408.163265                       # average overall mshr miss latency
system.cpu.dcache.replacements                      0                       # number of replacements
system.cpu.dcache.ReadReq_hits::.cpu.data         1115                       # number of ReadReq hits
system.cpu.dcache.ReadReq_hits::total            1115                       # number of ReadReq hits
system.cpu.dcache.ReadReq_misses::.cpu.data          110                       # number of ReadReq misses
system.cpu.dcache.ReadReq_misses::total           110                       # number of ReadReq misses
system.cpu.dcache.ReadReq_miss_latency::.cpu.data      6550500                       # number of ReadReq miss cycles
system.cpu.dcache.ReadReq_miss_latency::total      6550500                       # number of ReadReq miss cycles
system.cpu.dcache.ReadReq_accesses::.cpu.data         1225                       # number of ReadReq accesses(hits+misses)
system.cpu.dcache.ReadReq_accesses::total         1225                       # number of ReadReq accesses(hits+misses)
system.cpu.dcache.ReadReq_miss_rate::.cpu.data     0.089796                       # miss rate for ReadReq accesses
system.cpu.dcache.ReadReq_miss_rate::total     0.089796                       # miss rate for ReadReq accesses
system.cpu.dcache.ReadReq_avg_miss_latency::.cpu.data        59550                       # average ReadReq miss latency
system.cpu.dcache.ReadReq_avg_miss_latency::total        59550                       # average ReadReq miss latency
system.cpu.dcache.ReadReq_mshr_hits::.cpu.data            6                       # number of ReadReq MSHR hits
system.cpu.dcache.ReadReq_mshr_hits::total            6                       # number of ReadReq MSHR hits
system.cpu.dcache.ReadReq_mshr_misses::.cpu.data          104                       # number of ReadReq MSHR misses
system.cpu.dcache.ReadReq_mshr_misses::total          104                       # number of ReadReq MSHR misses
system.cpu.dcache.ReadReq_mshr_miss_latency::.cpu.data      6118500                       # number of ReadReq MSHR miss cycles
system.cpu.dcache.ReadReq_mshr_miss_latency::total      6118500                       # number of ReadReq MSHR miss cycles
system.cpu.dcache.ReadReq_mshr_miss_rate::.cpu.data     0.084898                       # mshr miss rate for ReadReq accesses
system.cpu.dcache.ReadReq_mshr_miss_rate::total     0.084898                       # mshr miss rate for ReadReq accesses
system.cpu.dcache.ReadReq_avg_mshr_miss_latency::.cpu.data 58831.730769                       # average ReadReq mshr miss latency
system.cpu.dcache.ReadReq_avg_mshr_miss_latency::total 58831.730769                       # average ReadReq mshr miss latency
system.cpu.dcache.WriteReq_hits::.cpu.data          858                       # number of WriteReq hits
system.cpu.dcache.WriteReq_hits::total            858                       # number of WriteReq hits
system.cpu.dcache.WriteReq_misses::.cpu.data           67                       # number of WriteReq misses
system.cpu.dcache.WriteReq_misses::total           67                       # number of WriteReq misses
system.cpu.dcache.WriteReq_miss_latency::.cpu.data      3722500                       # number of WriteReq miss cycles
system.cpu.dcache.WriteReq_miss_latency::total      3722500                       # number of WriteReq miss cycles
system.cpu.dcache.WriteReq_accesses::.cpu.data          925                       # number of WriteReq accesses(hits+misses)
system.cpu.dcache.WriteReq_accesses::total          925                       # number of WriteReq accesses(hits+misses)
system.cpu.dcache.WriteReq_miss_rate::.cpu.data     0.072432                       # miss rate for WriteReq accesses
system.cpu.dcache.WriteReq_miss_rate::total     0.072432                       # miss rate for WriteReq accesses
system.cpu.dcache.WriteReq_avg_miss_latency::.cpu.data 55559.701493                       # average WriteReq miss latency
system.cpu.dcache.WriteReq_avg_miss_latency::total 55559.701493                       # average WriteReq miss latency
system.cpu.dcache.WriteReq_mshr_hits::.cpu.data           24                       # number of WriteReq MSHR hits
system.cpu.dcache.WriteReq_mshr_hits::total           24                       # number of WriteReq MSHR hits
system.cpu.dcache.WriteReq_mshr_misses::.cpu.data           43                       # number of WriteReq MSHR misses
system.cpu.dcache.WriteReq_mshr_misses::total           43                       # number of WriteReq MSHR misses
system.cpu.dcache.WriteReq_mshr_miss_latency::.cpu.data      2320500                       # number of WriteReq MSHR miss cycles
system.cpu.dcache.WriteReq_mshr_miss_latency::total      2320500                       # number of WriteReq MSHR miss cycles
system.cpu.dcache.WriteReq_mshr_miss_rate::.cpu.data     0.046486                       # mshr miss rate for WriteReq accesses
system.cpu.dcache.WriteReq_mshr_miss_rate::total     0.046486                       # mshr miss rate for WriteReq accesses
system.cpu.dcache.WriteReq_avg_mshr_miss_latency::.cpu.data 53965.116279                       # average WriteReq mshr miss latency
system.cpu.dcache.WriteReq_avg_mshr_miss_latency::total 53965.116279                       # average WriteReq mshr miss latency
system.cpu.dcache.LoadLockedReq_hits::.cpu.data           11                       # number of LoadLockedReq hits
system.cpu.dcache.LoadLockedReq_hits::total           11                       # number of LoadLockedReq hits
system.cpu.dcache.LoadLockedReq_accesses::.cpu.data           11                       # number of LoadLockedReq accesses(hits+misses)
system.cpu.dcache.LoadLockedReq_accesses::total           11                       # number of LoadLockedReq accesses(hits+misses)
system.cpu.dcache.StoreCondReq_hits::.cpu.data           11                       # number of StoreCondReq hits
system.cpu.dcache.StoreCondReq_hits::total           11                       # number of StoreCondReq hits
system.cpu.dcache.StoreCondReq_accesses::.cpu.data           11                       # number of StoreCondReq accesses(hits+misses)
system.cpu.dcache.StoreCondReq_accesses::total           11                       # number of StoreCondReq accesses(hits+misses)
system.cpu.dcache.power_state.pwrStateResidencyTicks::UNDEFINED     26921000                       # Cumulative time (in ticks) in various power states
system.cpu.dcache.tags.tagsinuse            89.297056                       # Cycle average of tags in use
system.cpu.dcache.tags.total_refs                2142                       # Total number of references to valid blocks.
system.cpu.dcache.tags.sampled_refs               147                       # Sample count of references to valid blocks.
system.cpu.dcache.tags.avg_refs             14.571429                       # Average number of references to valid blocks.
system.cpu.dcache.tags.warmup_cycle            136000                       # Cycle when the warmup percentage was hit.
system.cpu.dcache.tags.occ_blocks::.cpu.data    89.297056                       # Average occupied blocks per requestor
system.cpu.dcache.tags.occ_percent::.cpu.data     0.087204                       # Average percentage of cache occupancy
system.cpu.dcache.tags.occ_percent::total     0.087204                       # Average percentage of cache occupancy
system.cpu.dcache.tags.occ_task_id_blocks::1024          147                       # Occupied blocks per task id
system.cpu.dcache.tags.age_task_id_blocks_1024::0           38                       # Occupied blocks per task id
system.cpu.dcache.tags.age_task_id_blocks_1024::1          109                       # Occupied blocks per task id
system.cpu.dcache.tags.occ_task_id_percent::1024     0.143555                       # Percentage of cache occupancy per task id
system.cpu.dcache.tags.tag_accesses              4491                       # Number of tag accesses
system.cpu.dcache.tags.data_accesses             4491                       # Number of data accesses
system.cpu.dcache.tags.power_state.pwrStateResidencyTicks::UNDEFINED     26921000                       # Cumulative time (in ticks) in various power states
system.cpu.dtb.instHits                             0                       # ITB inst hits
system.cpu.dtb.instMisses                           0                       # ITB inst misses
system.cpu.dtb.readHits                             0                       # DTB read hits
system.cpu.dtb.readMisses                           0                       # DTB read misses
system.cpu.dtb.writeHits                            0                       # DTB write hits
system.cpu.dtb.writeMisses                          0                       # DTB write misses
system.cpu.dtb.inserts                              0                       # Number of times an entry is inserted into the TLB
system.cpu.dtb.flushTlb                             0                       # Number of times complete TLB was flushed
system.cpu.dtb.flushTlbMva                          0                       # Number of times TLB was flushed by MVA
system.cpu.dtb.flushTlbMvaAsid                      0                       # Number of times TLB was flushed by MVA & ASID
system.cpu.dtb.flushTlbAsid                         0                       # Number of times TLB was flushed by ASID
system.cpu.dtb.flushedEntries                       0                       # Number of entries that have been flushed from TLB
system.cpu.dtb.alignFaults                          0                       # Number of TLB faults due to alignment restrictions
system.cpu.dtb.prefetchFaults                       0                       # Number of TLB faults due to prefetch
system.cpu.dtb.domainFaults                         0                       # Number of TLB faults due to domain restrictions
system.cpu.dtb.permsFaults                          0                       # Number of TLB faults due to permissions restrictions
system.cpu.dtb.readAccesses                         0                       # DTB read accesses
system.cpu.dtb.writeAccesses                        0                       # DTB write accesses
system.cpu.dtb.instAccesses                         0                       # ITB inst accesses
system.cpu.dtb.hits                                 0                       # Total TLB (inst and data) hits
system.cpu.dtb.misses                               0                       # Total TLB (inst and data) misses
system.cpu.dtb.accesses                             0                       # Total TLB (inst and data) accesses
system.cpu.dtb.stage2_mmu.stage2_tlb.instHits            0                       # ITB inst hits
system.cpu.dtb.stage2_mmu.stage2_tlb.instMisses            0                       # ITB inst misses
system.cpu.dtb.stage2_mmu.stage2_tlb.readHits            0                       # DTB read hits
system.cpu.dtb.stage2_mmu.stage2_tlb.readMisses            0                       # DTB read misses
system.cpu.dtb.stage2_mmu.stage2_tlb.writeHits            0                       # DTB write hits
system.cpu.dtb.stage2_mmu.stage2_tlb.writeMisses            0                       # DTB write misses
system.cpu.dtb.stage2_mmu.stage2_tlb.inserts            0                       # Number of times an entry is inserted into the TLB
system.cpu.dtb.stage2_mmu.stage2_tlb.flushTlb            0                       # Number of times complete TLB was flushed
system.cpu.dtb.stage2_mmu.stage2_tlb.flushTlbMva            0                       # Number of times TLB was flushed by MVA
system.cpu.dtb.stage2_mmu.stage2_tlb.flushTlbMvaAsid            0                       # Number of times TLB was flushed by MVA & ASID
system.cpu.dtb.stage2_mmu.stage2_tlb.flushTlbAsid            0                       # Number of times TLB was flushed by ASID
system.cpu.dtb.stage2_mmu.stage2_tlb.flushedEntries            0                       # Number of entries that have been flushed from TLB
system.cpu.dtb.stage2_mmu.stage2_tlb.alignFaults            0                       # Number of TLB faults due to alignment restrictions
system.cpu.dtb.stage2_mmu.stage2_tlb.prefetchFaults            0                       # Number of TLB faults due to prefetch
system.cpu.dtb.stage2_mmu.stage2_tlb.domainFaults            0                       # Number of TLB faults due to domain restrictions
system.cpu.dtb.stage2_mmu.stage2_tlb.permsFaults            0                       # Number of TLB faults due to permissions restrictions
system.cpu.dtb.stage2_mmu.stage2_tlb.readAccesses            0                       # DTB read accesses
system.cpu.dtb.stage2_mmu.stage2_tlb.writeAccesses            0                       # DTB write accesses
system.cpu.dtb.stage2_mmu.stage2_tlb.instAccesses            0                       # ITB inst accesses
system.cpu.dtb.stage2_mmu.stage2_tlb.hits            0                       # Total TLB (inst and data) hits
system.cpu.dtb.stage2_mmu.stage2_tlb.misses            0                       # Total TLB (inst and data) misses
system.cpu.dtb.stage2_mmu.stage2_tlb.accesses            0                       # Total TLB (inst and data) accesses
system.cpu.dtb.stage2_mmu.stage2_tlb.walker.walks            0                       # Table walker walks requested
system.cpu.dtb.stage2_mmu.stage2_tlb.walker.requestOrigin_Requested::Data            0                       # Table walker requests started/completed, data/inst
system.cpu.dtb.stage2_mmu.stage2_tlb.walker.requestOrigin_Requested::Inst            0                       # Table walker requests started/completed, data/inst
system.cpu.dtb.stage2_mmu.stage2_tlb.walker.requestOrigin_Requested::total            0                       # Table walker requests started/completed, data/inst
system.cpu.dtb.stage2_mmu.stage2_tlb.walker.requestOrigin_Completed::Data            0                       # Table walker requests started/completed, data/inst
system.cpu.dtb.stage2_mmu.stage2_tlb.walker.requestOrigin_Completed::Inst            0                       # Table walker requests started/completed, data/inst
system.cpu.dtb.stage2_mmu.stage2_tlb.walker.requestOrigin_Completed::total            0                       # Table walker requests started/completed, data/inst
system.cpu.dtb.stage2_mmu.stage2_tlb.walker.requestOrigin::total            0                       # Table walker requests started/completed, data/inst
system.cpu.dtb.stage2_mmu.stage2_tlb.walker.power_state.pwrStateResidencyTicks::UNDEFINED     26921000                       # Cumulative time (in ticks) in various power states
system.cpu.dtb.walker.walks                         0                       # Table walker walks requested
system.cpu.dtb.walker.requestOrigin_Requested::Data            0                       # Table walker requests started/completed, data/inst
system.cpu.dtb.walker.requestOrigin_Requested::Inst            0                       # Table walker requests started/completed, data/inst
system.cpu.dtb.walker.requestOrigin_Requested::total            0                       # Table walker requests started/completed, data/inst
system.cpu.dtb.walker.requestOrigin_Completed::Data            0                       # Table walker requests started/completed, data/inst
system.cpu.dtb.walker.requestOrigin_Completed::Inst            0                       # Table walker requests started/completed, data/inst
system.cpu.dtb.walker.requestOrigin_Completed::total            0                       # Table walker requests started/completed, data/inst
system.cpu.dtb.walker.requestOrigin::total            0                       # Table walker requests started/completed, data/inst
system.cpu.dtb.walker.power_state.pwrStateResidencyTicks::UNDEFINED     26921000                       # Cumulative time (in ticks) in various power states
system.cpu.fetch2.intInstructions                5177                       # Number of integer instructions successfully decoded
system.cpu.fetch2.fpInstructions                    0                       # Number of floating point instructions successfully decoded
system.cpu.fetch2.vecInstructions                   0                       # Number of SIMD instructions successfully decoded
system.cpu.fetch2.loadInstructions               1735                       # Number of memory load instructions successfully decoded
system.cpu.fetch2.storeInstructions               809                       # Number of memory store instructions successfully decoded
system.cpu.fetch2.amoInstructions                   0                       # Number of memory atomic instructions successfully decoded
system.cpu.icache.demand_hits::.cpu.inst         2106                       # number of demand (read+write) hits
system.cpu.icache.demand_hits::total             2106                       # number of demand (read+write) hits
system.cpu.icache.overall_hits::.cpu.inst         2106                       # number of overall hits
system.cpu.icache.overall_hits::total            2106                       # number of overall hits
system.cpu.icache.demand_misses::.cpu.inst          351                       # number of demand (read+write) misses
system.cpu.icache.demand_misses::total            351                       # number of demand (read+write) misses
system.cpu.icache.overall_misses::.cpu.inst          351                       # number of overall misses
system.cpu.icache.overall_misses::total           351                       # number of overall misses
system.cpu.icache.demand_miss_latency::.cpu.inst     20282000                       # number of demand (read+write) miss cycles
system.cpu.icache.demand_miss_latency::total     20282000                       # number of demand (read+write) miss cycles
system.cpu.icache.overall_miss_latency::.cpu.inst     20282000                       # number of overall miss cycles
system.cpu.icache.overall_miss_latency::total     20282000                       # number of overall miss cycles
system.cpu.icache.demand_accesses::.cpu.inst         2457                       # number of demand (read+write) accesses
system.cpu.icache.demand_accesses::total         2457                       # number of demand (read+write) accesses
system.cpu.icache.overall_accesses::.cpu.inst         2457                       # number of overall (read+write) accesses
system.cpu.icache.overall_accesses::total         2457                       # number of overall (read+write) accesses
system.cpu.icache.demand_miss_rate::.cpu.inst     0.142857                       # miss rate for demand accesses
system.cpu.icache.demand_miss_rate::total     0.142857                       # miss rate for demand accesses
system.cpu.icache.overall_miss_rate::.cpu.inst     0.142857                       # miss rate for overall accesses
system.cpu.icache.overall_miss_rate::total     0.142857                       # miss rate for overall accesses
system.cpu.icache.demand_avg_miss_latency::.cpu.inst 57783.475783                       # average overall miss latency
system.cpu.icache.demand_avg_miss_latency::total 57783.475783                       # average overall miss latency
system.cpu.icache.overall_avg_miss_latency::.cpu.inst 57783.475783                       # average overall miss latency
system.cpu.icache.overall_avg_miss_latency::total 57783.475783                       # average overall miss latency
system.cpu.icache.blocked_cycles::no_mshrs            0                       # number of cycles access was blocked
system.cpu.icache.blocked_cycles::no_targets            0                       # number of cycles access was blocked
system.cpu.icache.blocked::no_mshrs                 0                       # number of cycles access was blocked
system.cpu.icache.blocked::no_targets               0                       # number of cycles access was blocked
system.cpu.icache.avg_blocked_cycles::no_mshrs          nan                       # average number of cycles each access was blocked
system.cpu.icache.avg_blocked_cycles::no_targets          nan                       # average number of cycles each access was blocked
system.cpu.icache.writebacks::.writebacks          152                       # number of writebacks
system.cpu.icache.writebacks::total               152                       # number of writebacks
system.cpu.icache.demand_mshr_misses::.cpu.inst          351                       # number of demand (read+write) MSHR misses
system.cpu.icache.demand_mshr_misses::total          351                       # number of demand (read+write) MSHR misses
system.cpu.icache.overall_mshr_misses::.cpu.inst          351                       # number of overall MSHR misses
system.cpu.icache.overall_mshr_misses::total          351                       # number of overall MSHR misses
system.cpu.icache.demand_mshr_miss_latency::.cpu.inst     19931000                       # number of demand (read+write) MSHR miss cycles
system.cpu.icache.demand_mshr_miss_latency::total     19931000                       # number of demand (read+write) MSHR miss cycles
system.cpu.icache.overall_mshr_miss_latency::.cpu.inst     19931000                       # number of overall MSHR miss cycles
system.cpu.icache.overall_mshr_miss_latency::total     19931000                       # number of overall MSHR miss cycles
system.cpu.icache.demand_mshr_miss_rate::.cpu.inst     0.142857                       # mshr miss rate for demand accesses
system.cpu.icache.demand_mshr_miss_rate::total     0.142857                       # mshr miss rate for demand accesses
system.cpu.icache.overall_mshr_miss_rate::.cpu.inst     0.142857                       # mshr miss rate for overall accesses
system.cpu.icache.overall_mshr_miss_rate::total     0.142857                       # mshr miss rate for overall accesses
system.cpu.icache.demand_avg_mshr_miss_latency::.cpu.inst 56783.475783                       # average overall mshr miss latency
system.cpu.icache.demand_avg_mshr_miss_latency::total 56783.475783                       # average overall mshr miss latency
system.cpu.icache.overall_avg_mshr_miss_latency::.cpu.inst 56783.475783                       # average overall mshr miss latency
system.cpu.icache.overall_avg_mshr_miss_latency::total 56783.475783                       # average overall mshr miss latency
system.cpu.icache.replacements                    152                       # number of replacements
system.cpu.icache.ReadReq_hits::.cpu.inst         2106                       # number of ReadReq hits
system.cpu.icache.ReadReq_hits::total            2106                       # number of ReadReq hits
system.cpu.icache.ReadReq_misses::.cpu.inst          351                       # number of ReadReq misses
system.cpu.icache.ReadReq_misses::total           351                       # number of ReadReq misses
system.cpu.icache.ReadReq_miss_latency::.cpu.inst     20282000                       # number of ReadReq miss cycles
system.cpu.icache.ReadReq_miss_latency::total     20282000                       # number of ReadReq miss cycles
system.cpu.icache.ReadReq_accesses::.cpu.inst         2457                       # number of ReadReq accesses(hits+misses)
system.cpu.icache.ReadReq_accesses::total         2457                       # number of ReadReq accesses(hits+misses)
system.cpu.icache.ReadReq_miss_rate::.cpu.inst     0.142857                       # miss rate for ReadReq accesses
system.cpu.icache.ReadReq_miss_rate::total     0.142857                       # miss rate for ReadReq accesses
system.cpu.icache.ReadReq_avg_miss_latency::.cpu.inst 57783.475783                       # average ReadReq miss latency
system.cpu.icache.ReadReq_avg_miss_latency::total 57783.475783                       # average ReadReq miss latency
system.cpu.icache.ReadReq_mshr_misses::.cpu.inst          351                       # number of ReadReq MSHR misses
system.cpu.icache.ReadReq_mshr_misses::total          351                       # number of ReadReq MSHR misses
system.cpu.icache.ReadReq_mshr_miss_latency::.cpu.inst     19931000                       # number of ReadReq MSHR miss cycles
system.cpu.icache.ReadReq_mshr_miss_latency::total     19931000                       # number of ReadReq MSHR miss cycles
system.cpu.icache.ReadReq_mshr_miss_rate::.cpu.inst     0.142857                       # mshr miss rate for ReadReq accesses
system.cpu.icache.ReadReq_mshr_miss_rate::total     0.142857                       # mshr miss rate for ReadReq accesses
system.cpu.icache.ReadReq_avg_mshr_miss_latency::.cpu.inst 56783.475783                       # average ReadReq mshr miss latency
system.cpu.icache.ReadReq_avg_mshr_miss_latency::total 56783.475783                       # average ReadReq mshr miss latency
system.cpu.icache.power_state.pwrStateResidencyTicks::UNDEFINED     26921000                       # Cumulative time (in ticks) in various power states
system.cpu.icache.tags.tagsinuse           123.734597                       # Cycle average of tags in use
system.cpu.icache.tags.total_refs                2457                       # Total number of references to valid blocks.
system.cpu.icache.tags.sampled_refs               351                       # Sample count of references to valid blocks.
system.cpu.icache.tags.avg_refs                     7                       # Average number of references to valid blocks.
system.cpu.icache.tags.warmup_cycle             77000                       # Cycle when the warmup percentage was hit.
system.cpu.icache.tags.occ_blocks::.cpu.inst   123.734597                       # Average occupied blocks per requestor
system.cpu.icache.tags.occ_percent::.cpu.inst     0.483338                       # Average percentage of cache occupancy
system.cpu.icache.tags.occ_percent::total     0.483338                       # Average percentage of cache occupancy
system.cpu.icache.tags.occ_task_id_blocks::1024          199                       # Occupied blocks per task id
system.cpu.icache.tags.age_task_id_blocks_1024::0          118                       # Occupied blocks per task id
system.cpu.icache.tags.age_task_id_blocks_1024::1           81                       # Occupied blocks per task id
system.cpu.icache.tags.occ_task_id_percent::1024     0.777344                       # Percentage of cache occupancy per task id
system.cpu.icache.tags.tag_accesses              5265                       # Number of tag accesses
system.cpu.icache.tags.data_accesses             5265                       # Number of data accesses
system.cpu.icache.tags.power_state.pwrStateResidencyTicks::UNDEFINED     26921000                       # Cumulative time (in ticks) in various power states
system.cpu.itb.instHits                             0                       # ITB inst hits
system.cpu.itb.instMisses                           0                       # ITB inst misses
system.cpu.itb.readHits                             0                       # DTB read hits
system.cpu.itb.readMisses                           0                       # DTB read misses
system.cpu.itb.writeHits                            0                       # DTB write hits
system.cpu.itb.writeMisses                          0                       # DTB write misses
system.cpu.itb.inserts                              0                       # Number of times an entry is inserted into the TLB
system.cpu.itb.flushTlb                             0                       # Number of times complete TLB was flushed
system.cpu.itb.flushTlbMva                          0                       # Number of times TLB was flushed by MVA
system.cpu.itb.flushTlbMvaAsid                      0                       # Number of times TLB was flushed by MVA & ASID
system.cpu.itb.flushTlbAsid                         0                       # Number of times TLB was flushed by ASID
system.cpu.itb.flushedEntries                       0                       # Number of entries that have been flushed from TLB
system.cpu.itb.alignFaults                          0                       # Number of TLB faults due to alignment restrictions
system.cpu.itb.prefetchFaults                       0                       # Number of TLB faults due to prefetch
system.cpu.itb.domainFaults                         0                       # Number of TLB faults due to domain restrictions
system.cpu.itb.permsFaults                          0                       # Number of TLB faults due to permissions restrictions
system.cpu.itb.readAccesses                         0                       # DTB read accesses
system.cpu.itb.writeAccesses                        0                       # DTB write accesses
system.cpu.itb.instAccesses                         0                       # ITB inst accesses
system.cpu.itb.hits                                 0                       # Total TLB (inst and data) hits
system.cpu.itb.misses                               0                       # Total TLB (inst and data) misses
system.cpu.itb.accesses                             0                       # Total TLB (inst and data) accesses
system.cpu.itb.stage2_mmu.stage2_tlb.instHits            0                       # ITB inst hits
system.cpu.itb.stage2_mmu.stage2_tlb.instMisses            0                       # ITB inst misses
system.cpu.itb.stage2_mmu.stage2_tlb.readHits            0                       # DTB read hits
system.cpu.itb.stage2_mmu.stage2_tlb.readMisses            0                       # DTB read misses
system.cpu.itb.stage2_mmu.stage2_tlb.writeHits            0                       # DTB write hits
system.cpu.itb.stage2_mmu.stage2_tlb.writeMisses            0                       # DTB write misses
system.cpu.itb.stage2_mmu.stage2_tlb.inserts            0                       # Number of times an entry is inserted into the TLB
system.cpu.itb.stage2_mmu.stage2_tlb.flushTlb            0                       # Number of times complete TLB was flushed
system.cpu.itb.stage2_mmu.stage2_tlb.flushTlbMva            0                       # Number of times TLB was flushed by MVA
system.cpu.itb.stage2_mmu.stage2_tlb.flushTlbMvaAsid            0                       # Number of times TLB was flushed by MVA & ASID
system.cpu.itb.stage2_mmu.stage2_tlb.flushTlbAsid            0                       # Number of times TLB was flushed by ASID
system.cpu.itb.stage2_mmu.stage2_tlb.flushedEntries            0                       # Number of entries that have been flushed from TLB
system.cpu.itb.stage2_mmu.stage2_tlb.alignFaults            0                       # Number of TLB faults due to alignment restrictions
system.cpu.itb.stage2_mmu.stage2_tlb.prefetchFaults            0                       # Number of TLB faults due to prefetch
system.cpu.itb.stage2_mmu.stage2_tlb.domainFaults            0                       # Number of TLB faults due to domain restrictions
system.cpu.itb.stage2_mmu.stage2_tlb.permsFaults            0                       # Number of TLB faults due to permissions restrictions
system.cpu.itb.stage2_mmu.stage2_tlb.readAccesses            0                       # DTB read accesses
system.cpu.itb.stage2_mmu.stage2_tlb.writeAccesses            0                       # DTB write accesses
system.cpu.itb.stage2_mmu.stage2_tlb.instAccesses            0                       # ITB inst accesses
system.cpu.itb.stage2_mmu.stage2_tlb.hits            0                       # Total TLB (inst and data) hits
system.cpu.itb.stage2_mmu.stage2_tlb.misses            0                       # Total TLB (inst and data) misses
system.cpu.itb.stage2_mmu.stage2_tlb.accesses            0                       # Total TLB (inst and data) accesses
system.cpu.itb.stage2_mmu.stage2_tlb.walker.walks            0                       # Table walker walks requested
system.cpu.itb.stage2_mmu.stage2_tlb.walker.requestOrigin_Requested::Data            0                       # Table walker requests started/completed, data/inst
system.cpu.itb.stage2_mmu.stage2_tlb.walker.requestOrigin_Requested::Inst            0                       # Table walker requests started/completed, data/inst
system.cpu.itb.stage2_mmu.stage2_tlb.walker.requestOrigin_Requested::total            0                       # Table walker requests started/completed, data/inst
system.cpu.itb.stage2_mmu.stage2_tlb.walker.requestOrigin_Completed::Data            0                       # Table walker requests started/completed, data/inst
system.cpu.itb.stage2_mmu.stage2_tlb.walker.requestOrigin_Completed::Inst            0                       # Table walker requests started/completed, data/inst
system.cpu.itb.stage2_mmu.stage2_tlb.walker.requestOrigin_Completed::total            0                       # Table walker requests started/completed, data/inst
system.cpu.itb.stage2_mmu.stage2_tlb.walker.requestOrigin::total            0                       # Table walker requests started/completed, data/inst
system.cpu.itb.stage2_mmu.stage2_tlb.walker.power_state.pwrStateResidencyTicks::UNDEFINED     26921000                       # Cumulative time (in ticks) in various power states
system.cpu.itb.walker.walks                         0                       # Table walker walks requested
system.cpu.itb.walker.requestOrigin_Requested::Data            0                       # Table walker requests started/completed, data/inst
system.cpu.itb.walker.requestOrigin_Requested::Inst            0                       # Table walker requests started/completed, data/inst
system.cpu.itb.walker.requestOrigin_Requested::total            0                       # Table walker requests started/completed, data/inst
system.cpu.itb.walker.requestOrigin_Completed::Data            0                       # Table walker requests started/completed, data/inst
system.cpu.itb.walker.requestOrigin_Completed::Inst            0                       # Table walker requests started/completed, data/inst
system.cpu.itb.walker.requestOrigin_Completed::total            0                       # Table walker requests started/completed, data/inst
system.cpu.itb.walker.requestOrigin::total            0                       # Table walker requests started/completed, data/inst
system.cpu.itb.walker.power_state.pwrStateResidencyTicks::UNDEFINED     26921000                       # Cumulative time (in ticks) in various power states
system.cpu.power_state.pwrStateResidencyTicks::ON     26921000                       # Cumulative time (in ticks) in various power states
system.cpu.thread_0.numInsts                     5028                       # Number of Instructions committed
system.cpu.thread_0.numOps                       5834                       # Number of Ops committed
system.cpu.thread_0.numMemRefs                      0                       # Number of Memory References
system.cpu_clk_domain.clock                       500                       # Clock period in ticks
system.cpu_voltage_domain.voltage                   1                       # Voltage in Volts
system.mem_ctrls.avgPriority_.writebacks::samples       125.00                       # Average QoS priority value for accepted requests
system.mem_ctrls.avgPriority_.cpu.inst::samples       339.00                       # Average QoS priority value for accepted requests
system.mem_ctrls.avgPriority_.cpu.data::samples       146.00                       # Average QoS priority value for accepted requests
system.mem_ctrls.priorityMinLatency      0.000000018750                       # per QoS priority minimum request to response latency (s)
system.mem_ctrls.priorityMaxLatency      0.000019083250                       # per QoS priority maximum request to response latency (s)
system.mem_ctrls.numReadWriteTurnArounds            6                       # Number of turnarounds from READ to WRITE
system.mem_ctrls.numWriteReadTurnArounds            6                       # Number of turnarounds from WRITE to READ
system.mem_ctrls.numStayReadState                1095                       # Number of times bus staying in READ state
system.mem_ctrls.numStayWriteState                 90                       # Number of times bus staying in WRITE state
system.mem_ctrls.readReqs                         498                       # Number of read requests accepted
system.mem_ctrls.writeReqs                        127                       # Number of write requests accepted
system.mem_ctrls.readBursts                       498                       # Number of controller read bursts, including those serviced by the write queue
system.mem_ctrls.writeBursts                      127                       # Number of controller write bursts, including those merged in the write queue
system.mem_ctrls.servicedByWrQ                     13                       # Number of controller read bursts serviced by the write queue
system.mem_ctrls.mergedWrBursts                     2                       # Number of controller write bursts merged with an existing one
system.mem_ctrls.neitherReadNorWriteReqs            0                       # Number of requests that are neither read nor write
system.mem_ctrls.avgRdQLen                       1.25                       # Average read queue length when enqueuing
system.mem_ctrls.avgWrQLen                      18.70                       # Average write queue length when enqueuing
system.mem_ctrls.numRdRetry                         0                       # Number of times read queue was full causing retry
system.mem_ctrls.numWrRetry                         0                       # Number of times write queue was full causing retry
system.mem_ctrls.readPktSize::0                     0                       # Read request sizes (log2)
system.mem_ctrls.readPktSize::1                     0                       # Read request sizes (log2)
system.mem_ctrls.readPktSize::2                     0                       # Read request sizes (log2)
system.mem_ctrls.readPktSize::3                     0                       # Read request sizes (log2)
system.mem_ctrls.readPktSize::4                     0                       # Read request sizes (log2)
system.mem_ctrls.readPktSize::5                     0                       # Read request sizes (log2)
system.mem_ctrls.readPktSize::6                   498                       # Read request sizes (log2)
system.mem_ctrls.writePktSize::0                    0                       # Write request sizes (log2)
system.mem_ctrls.writePktSize::1                    0                       # Write request sizes (log2)
system.mem_ctrls.writePktSize::2                    0                       # Write request sizes (log2)
system.mem_ctrls.writePktSize::3                    0                       # Write request sizes (log2)
system.mem_ctrls.writePktSize::4                    0                       # Write request sizes (log2)
system.mem_ctrls.writePktSize::5                    0                       # Write request sizes (log2)
system.mem_ctrls.writePktSize::6                  127                       # Write request sizes (log2)
system.mem_ctrls.rdQLenPdf::0                     382                       # What read queue length does an incoming req see
system.mem_ctrls.rdQLenPdf::1                      95                       # What read queue length does an incoming req see
system.mem_ctrls.rdQLenPdf::2                       8                       # What read queue length does an incoming req see
system.mem_ctrls.rdQLenPdf::3                       0                       # What read queue length does an incoming req see
system.mem_ctrls.rdQLenPdf::4                       0                       # What read queue length does an incoming req see
system.mem_ctrls.rdQLenPdf::5                       0                       # What read queue length does an incoming req see
system.mem_ctrls.rdQLenPdf::6                       0                       # What read queue length does an incoming req see
system.mem_ctrls.rdQLenPdf::7                       0                       # What read queue length does an incoming req see
system.mem_ctrls.rdQLenPdf::8                       0                       # What read queue length does an incoming req see
system.mem_ctrls.rdQLenPdf::9                       0                       # What read queue length does an incoming req see
system.mem_ctrls.rdQLenPdf::10                      0                       # What read queue length does an incoming req see
system.mem_ctrls.rdQLenPdf::11                      0                       # What read queue length does an incoming req see
system.mem_ctrls.rdQLenPdf::12                      0                       # What read queue length does an incoming req see
system.mem_ctrls.rdQLenPdf::13                      0                       # What read queue length does an incoming req see
system.mem_ctrls.rdQLenPdf::14                      0                       # What read queue length does an incoming req see
system.mem_ctrls.rdQLenPdf::15                      0                       # What read queue length does an incoming req see
system.mem_ctrls.rdQLenPdf::16                      0                       # What read queue length does an incoming req see
system.mem_ctrls.rdQLenPdf::17                      0                       # What read queue length does an incoming req see
system.mem_ctrls.rdQLenPdf::18                      0                       # What read queue length does an incoming req see
system.mem_ctrls.rdQLenPdf::19                      0                       # What read queue length does an incoming req see
system.mem_ctrls.rdQLenPdf::20                      0                       # What read queue length does an incoming req see
system.mem_ctrls.rdQLenPdf::21                      0                       # What read queue length does an incoming req see
system.mem_ctrls.rdQLenPdf::22                      0                       # What read queue length does an incoming req see
system.mem_ctrls.rdQLenPdf::23                      0                       # What read queue length does an incoming req see
system.mem_ctrls.rdQLenPdf::24                      0                       # What read queue length does an incoming req see
system.mem_ctrls.rdQLenPdf::25                      0                       # What read queue length does an incoming req see
system.mem_ctrls.rdQLenPdf::26                      0                       # What read queue length does an incoming req see
system.mem_ctrls.rdQLenPdf::27                      0                       # What read queue length does an incoming req see
system.mem_ctrls.rdQLenPdf::28                      0                       # What read queue length does an incoming req see
system.mem_ctrls.rdQLenPdf::29                      0                       # What read queue length does an incoming req see
system.mem_ctrls.rdQLenPdf::30                      0                       # What read queue length does an incoming req see
system.mem_ctrls.rdQLenPdf::31                      0                       # What read queue length does an incoming req see
system.mem_ctrls.wrQLenPdf::0                       1                       # What write queue length does an incoming req see
system.mem_ctrls.wrQLenPdf::1                       1                       # What write queue length does an incoming req see
system.mem_ctrls.wrQLenPdf::2                       1                       # What write queue length does an incoming req see
system.mem_ctrls.wrQLenPdf::3                       1                       # What write queue length does an incoming req see
system.mem_ctrls.wrQLenPdf::4                       1                       # What write queue length does an incoming req see
system.mem_ctrls.wrQLenPdf::5                       1                       # What write queue length does an incoming req see
system.mem_ctrls.wrQLenPdf::6                       1                       # What write queue length does an incoming req see
system.mem_ctrls.wrQLenPdf::7                       1                       # What write queue length does an incoming req see
system.mem_ctrls.wrQLenPdf::8                       1                       # What write queue length does an incoming req see
system.mem_ctrls.wrQLenPdf::9                       1                       # What write queue length does an incoming req see
system.mem_ctrls.wrQLenPdf::10                      1                       # What write queue length does an incoming req see
system.mem_ctrls.wrQLenPdf::11                      1                       # What write queue length does an incoming req see
system.mem_ctrls.wrQLenPdf::12                      1                       # What write queue length does an incoming req see
system.mem_ctrls.wrQLenPdf::13                      1                       # What write queue length does an incoming req see
system.mem_ctrls.wrQLenPdf::14                      1                       # What write queue length does an incoming req see
system.mem_ctrls.wrQLenPdf::15                      1                       # What write queue length does an incoming req see
system.mem_ctrls.wrQLenPdf::16                      1                       # What write queue length does an incoming req see
system.mem_ctrls.wrQLenPdf::17                      7                       # What write queue length does an incoming req see
system.mem_ctrls.wrQLenPdf::18                      7                       # What write queue length does an incoming req see
system.mem_ctrls.wrQLenPdf::19                      7                       # What write queue length does an incoming req see
system.mem_ctrls.wrQLenPdf::20                      7                       # What write queue length does an incoming req see
system.mem_ctrls.wrQLenPdf::21                      7                       # What write queue length does an incoming req see
system.mem_ctrls.wrQLenPdf::22                      7                       # What write queue length does an incoming req see
system.mem_ctrls.wrQLenPdf::23                      7                       # What write queue length does an incoming req see
system.mem_ctrls.wrQLenPdf::24                      7                       # What write queue length does an incoming req see
system.mem_ctrls.wrQLenPdf::25                      7                       # What write queue length does an incoming req see
system.mem_ctrls.wrQLenPdf::26                      7                       # What write queue length does an incoming req see
system.mem_ctrls.wrQLenPdf::27                      7                       # What write queue length does an incoming req see
system.mem_ctrls.wrQLenPdf::28                      7                       # What write queue length does an incoming req see
system.mem_ctrls.wrQLenPdf::29                      6                       # What write queue length does an incoming req see
system.mem_ctrls.wrQLenPdf::30                      6                       # What write queue length does an incoming req see
system.mem_ctrls.wrQLenPdf::31                      6                       # What write queue length does an incoming req see
system.mem_ctrls.wrQLenPdf::32                      6                       # What write queue length does an incoming req see
system.mem_ctrls.wrQLenPdf::33                      0                       # What write queue length does an incoming req see
system.mem_ctrls.wrQLenPdf::34                      0                       # What write queue length does an incoming req see
system.mem_ctrls.wrQLenPdf::35                      0                       # What write queue length does an incoming req see
system.mem_ctrls.wrQLenPdf::36                      0                       # What write queue length does an incoming req see
system.mem_ctrls.wrQLenPdf::37                      0                       # What write queue length does an incoming req see
system.mem_ctrls.wrQLenPdf::38                      0                       # What write queue length does an incoming req see
system.mem_ctrls.wrQLenPdf::39                      0                       # What write queue length does an incoming req see
system.mem_ctrls.wrQLenPdf::40                      0                       # What write queue length does an incoming req see
system.mem_ctrls.wrQLenPdf::41                      0                       # What write queue length does an incoming req see
system.mem_ctrls.wrQLenPdf::42                      0                       # What write queue length does an incoming req see
system.mem_ctrls.wrQLenPdf::43                      0                       # What write queue length does an incoming req see
system.mem_ctrls.wrQLenPdf::44                      0                       # What write queue length does an incoming req see
system.mem_ctrls.wrQLenPdf::45                      0                       # What write queue length does an incoming req see
system.mem_ctrls.wrQLenPdf::46                      0                       # What write queue length does an incoming req see
system.mem_ctrls.wrQLenPdf::47                      0                       # What write queue length does an incoming req see
system.mem_ctrls.wrQLenPdf::48                      0                       # What write queue length does an incoming req see
system.mem_ctrls.wrQLenPdf::49                      0                       # What write queue length does an incoming req see
system.mem_ctrls.wrQLenPdf::50                      0                       # What write queue length does an incoming req see
system.mem_ctrls.wrQLenPdf::51                      0                       # What write queue length does an incoming req see
system.mem_ctrls.wrQLenPdf::52                      0                       # What write queue length does an incoming req see
system.mem_ctrls.wrQLenPdf::53                      0                       # What write queue length does an incoming req see
system.mem_ctrls.wrQLenPdf::54                      0                       # What write queue length does an incoming req see
system.mem_ctrls.wrQLenPdf::55                      0                       # What write queue length does an incoming req see
system.mem_ctrls.wrQLenPdf::56                      0                       # What write queue length does an incoming req see
system.mem_ctrls.wrQLenPdf::57                      0                       # What write queue length does an incoming req see
system.mem_ctrls.wrQLenPdf::58                      0                       # What write queue length does an incoming req see
system.mem_ctrls.wrQLenPdf::59                      0                       # What write queue length does an incoming req see
system.mem_ctrls.wrQLenPdf::60                      0                       # What write queue length does an incoming req see
system.mem_ctrls.wrQLenPdf::61                      0                       # What write queue length does an incoming req see
system.mem_ctrls.wrQLenPdf::62                      0                       # What write queue length does an incoming req see
system.mem_ctrls.wrQLenPdf::63                      0                       # What write queue length does an incoming req see
system.mem_ctrls.rdPerTurnAround::samples            6                       # Reads before turning the bus around for writes
system.mem_ctrls.rdPerTurnAround::mean             78                       # Reads before turning the bus around for writes
system.mem_ctrls.rdPerTurnAround::gmean     57.356163                       # Reads before turning the bus around for writes
system.mem_ctrls.rdPerTurnAround::stdev     85.930204                       # Reads before turning the bus around for writes
system.mem_ctrls.rdPerTurnAround::32-39             2     33.33%     33.33% # Reads before turning the bus around for writes
system.mem_ctrls.rdPerTurnAround::40-47             2     33.33%     66.67% # Reads before turning the bus around for writes
system.mem_ctrls.rdPerTurnAround::48-55             1     16.67%     83.33% # Reads before turning the bus around for writes
system.mem_ctrls.rdPerTurnAround::248-255            1     16.67%    100.00% # Reads before turning the bus around for writes
system.mem_ctrls.rdPerTurnAround::total             6                       # Reads before turning the bus around for writes
system.mem_ctrls.wrPerTurnAround::samples            6                       # Writes before turning the bus around for reads
system.mem_ctrls.wrPerTurnAround::mean             16                       # Writes before turning the bus around for reads
system.mem_ctrls.wrPerTurnAround::gmean     16.000000                       # Writes before turning the bus around for reads
system.mem_ctrls.wrPerTurnAround::16                6    100.00%    100.00% # Writes before turning the bus around for reads
system.mem_ctrls.wrPerTurnAround::total             6                       # Writes before turning the bus around for reads
system.mem_ctrls.bytesReadWrQ                     832                       # Total number of bytes read from write queue
system.mem_ctrls.bytesReadSys                   31872                       # Total read bytes from the system interface side
system.mem_ctrls.bytesWrittenSys                 8128                       # Total written bytes from the system interface side
system.mem_ctrls.avgRdBWSys                   1183.91                       # Average system read bandwidth in MiByte/s
system.mem_ctrls.avgWrBWSys                    301.92                       # Average system write bandwidth in MiByte/s
system.mem_ctrls.totGap                      26913500                       # Total gap between requests
system.mem_ctrls.avgGap                      43061.60                       # Average gap between requests
system.mem_ctrls.requestorReadBytes::.cpu.inst        21696                       # Per-requestor bytes read from memory
system.mem_ctrls.requestorReadBytes::.cpu.data         9344                       # Per-requestor bytes read from memory
system.mem_ctrls.requestorWriteBytes::.writebacks         6144                       # Per-requestor bytes write to memory
system.mem_ctrls.requestorReadRate::.cpu.inst 805913599.049069523811                       # Per-requestor bytes read from memory rate (Bytes/sec)
system.mem_ctrls.requestorReadRate::.cpu.data 347089632.628802835941                       # Per-requestor bytes read from memory rate (Bytes/sec)
system.mem_ctrls.requestorWriteRate::.writebacks 228223320.084692269564                       # Per-requestor bytes write to memory rate (Bytes/sec)
system.mem_ctrls.requestorReadAccesses::.cpu.inst          351                       # Per-requestor read serviced memory accesses
system.mem_ctrls.requestorReadAccesses::.cpu.data          147                       # Per-requestor read serviced memory accesses
system.mem_ctrls.requestorWriteAccesses::.writebacks          127                       # Per-requestor write serviced memory accesses
system.mem_ctrls.requestorReadTotalLat::.cpu.inst      8735500                       # Per-requestor read total memory access latency
system.mem_ctrls.requestorReadTotalLat::.cpu.data      3728250                       # Per-requestor read total memory access latency
system.mem_ctrls.requestorWriteTotalLat::.writebacks    357678250                       # Per-requestor write total memory access latency
system.mem_ctrls.requestorReadAvgLat::.cpu.inst     24887.46                       # Per-requestor read average memory access latency
system.mem_ctrls.requestorReadAvgLat::.cpu.data     25362.24                       # Per-requestor read average memory access latency
system.mem_ctrls.requestorWriteAvgLat::.writebacks   2816364.17                       # Per-requestor write average memory access latency
system.mem_ctrls.dram.bytes_read::.cpu.inst        22464                       # Number of bytes read from this memory
system.mem_ctrls.dram.bytes_read::.cpu.data         9408                       # Number of bytes read from this memory
system.mem_ctrls.dram.bytes_read::total         31872                       # Number of bytes read from this memory
system.mem_ctrls.dram.bytes_inst_read::.cpu.inst        22464                       # Number of instructions bytes read from this memory
system.mem_ctrls.dram.bytes_inst_read::total        22464                       # Number of instructions bytes read from this memory
system.mem_ctrls.dram.num_reads::.cpu.inst          351                       # Number of read requests responded to by this memory
system.mem_ctrls.dram.num_reads::.cpu.data          147                       # Number of read requests responded to by this memory
system.mem_ctrls.dram.num_reads::total            498                       # Number of read requests responded to by this memory
system.mem_ctrls.dram.bw_read::.cpu.inst    834441514                       # Total read bandwidth from this memory (bytes/s)
system.mem_ctrls.dram.bw_read::.cpu.data    349466959                       # Total read bandwidth from this memory (bytes/s)
system.mem_ctrls.dram.bw_read::total       1183908473                       # Total read bandwidth from this memory (bytes/s)
system.mem_ctrls.dram.bw_inst_read::.cpu.inst    834441514                       # Instruction read bandwidth from this memory (bytes/s)
system.mem_ctrls.dram.bw_inst_read::total    834441514                       # Instruction read bandwidth from this memory (bytes/s)
system.mem_ctrls.dram.bw_total::.cpu.inst    834441514                       # Total bandwidth to/from this memory (bytes/s)
system.mem_ctrls.dram.bw_total::.cpu.data    349466959                       # Total bandwidth to/from this memory (bytes/s)
system.mem_ctrls.dram.bw_total::total      1183908473                       # Total bandwidth to/from this memory (bytes/s)
system.mem_ctrls.dram.readBursts                  485                       # Number of DRAM read bursts
system.mem_ctrls.dram.writeBursts                  96                       # Number of DRAM write bursts
system.mem_ctrls.dram.perBankRdBursts::0          117                       # Per bank write bursts
system.mem_ctrls.dram.perBankRdBursts::1           56                       # Per bank write bursts
system.mem_ctrls.dram.perBankRdBursts::2           20                       # Per bank write bursts
system.mem_ctrls.dram.perBankRdBursts::3           43                       # Per bank write bursts
system.mem_ctrls.dram.perBankRdBursts::4           23                       # Per bank write bursts
system.mem_ctrls.dram.perBankRdBursts::5           52                       # Per bank write bursts
system.mem_ctrls.dram.perBankRdBursts::6           48                       # Per bank write bursts
system.mem_ctrls.dram.perBankRdBursts::7           14                       # Per bank write bursts
system.mem_ctrls.dram.perBankRdBursts::8            8                       # Per bank write bursts
system.mem_ctrls.dram.perBankRdBursts::9            7                       # Per bank write bursts
system.mem_ctrls.dram.perBankRdBursts::10           30                       # Per bank write bursts
system.mem_ctrls.dram.perBankRdBursts::11           43                       # Per bank write bursts
system.mem_ctrls.dram.perBankRdBursts::12            9                       # Per bank write bursts
system.mem_ctrls.dram.perBankRdBursts::13            7                       # Per bank write bursts
system.mem_ctrls.dram.perBankRdBursts::14            0                       # Per bank write bursts
system.mem_ctrls.dram.perBankRdBursts::15            8                       # Per bank write bursts
system.mem_ctrls.dram.perBankWrBursts::0           17                       # Per bank write bursts
system.mem_ctrls.dram.perBankWrBursts::1            1                       # Per bank write bursts
system.mem_ctrls.dram.perBankWrBursts::2            7                       # Per bank write bursts
system.mem_ctrls.dram.perBankWrBursts::3           22                       # Per bank write bursts
system.mem_ctrls.dram.perBankWrBursts::4            7                       # Per bank write bursts
system.mem_ctrls.dram.perBankWrBursts::5           23                       # Per bank write bursts
system.mem_ctrls.dram.perBankWrBursts::6           14                       # Per bank write bursts
system.mem_ctrls.dram.perBankWrBursts::7            4                       # Per bank write bursts
system.mem_ctrls.dram.perBankWrBursts::8            0                       # Per bank write bursts
system.mem_ctrls.dram.perBankWrBursts::9            0                       # Per bank write bursts
system.mem_ctrls.dram.perBankWrBursts::10            0                       # Per bank write bursts
system.mem_ctrls.dram.perBankWrBursts::11            0                       # Per bank write bursts
system.mem_ctrls.dram.perBankWrBursts::12            1                       # Per bank write bursts
system.mem_ctrls.dram.perBankWrBursts::13            0                       # Per bank write bursts
system.mem_ctrls.dram.perBankWrBursts::14            0                       # Per bank write bursts
system.mem_ctrls.dram.perBankWrBursts::15            0                       # Per bank write bursts
system.mem_ctrls.dram.totQLat                 3370000                       # Total ticks spent queuing
system.mem_ctrls.dram.totBusLat               2425000                       # Total ticks spent in databus transfers
system.mem_ctrls.dram.totMemAccLat           12463750                       # Total ticks spent from burst creation until serviced by the DRAM
system.mem_ctrls.dram.avgQLat                 6948.45                       # Average queueing delay per DRAM burst
system.mem_ctrls.dram.avgBusLat               5000.00                       # Average bus latency per DRAM burst
system.mem_ctrls.dram.avgMemAccLat           25698.45                       # Average memory access latency per DRAM burst
system.mem_ctrls.dram.readRowHits                 404                       # Number of row buffer hits during reads
system.mem_ctrls.dram.writeRowHits                 83                       # Number of row buffer hits during writes
system.mem_ctrls.dram.readRowHitRate            83.30                       # Row buffer hit rate for reads
system.mem_ctrls.dram.writeRowHitRate           86.46                       # Row buffer hit rate for writes
system.mem_ctrls.dram.bytesPerActivate::samples           82                       # Bytes accessed per row activation
system.mem_ctrls.dram.bytesPerActivate::mean   408.195122                       # Bytes accessed per row activation
system.mem_ctrls.dram.bytesPerActivate::gmean   289.972835                       # Bytes accessed per row activation
system.mem_ctrls.dram.bytesPerActivate::stdev   328.444085                       # Bytes accessed per row activation
system.mem_ctrls.dram.bytesPerActivate::0-127            9     10.98%     10.98% # Bytes accessed per row activation
system.mem_ctrls.dram.bytesPerActivate::128-255           20     24.39%     35.37% # Bytes accessed per row activation
system.mem_ctrls.dram.bytesPerActivate::256-383           21     25.61%     60.98% # Bytes accessed per row activation
system.mem_ctrls.dram.bytesPerActivate::384-511            7      8.54%     69.51% # Bytes accessed per row activation
system.mem_ctrls.dram.bytesPerActivate::512-639            5      6.10%     75.61% # Bytes accessed per row activation
system.mem_ctrls.dram.bytesPerActivate::640-767            4      4.88%     80.49% # Bytes accessed per row activation
system.mem_ctrls.dram.bytesPerActivate::768-895            1      1.22%     81.71% # Bytes accessed per row activation
system.mem_ctrls.dram.bytesPerActivate::896-1023            2      2.44%     84.15% # Bytes accessed per row activation
system.mem_ctrls.dram.bytesPerActivate::1024-1151           13     15.85%    100.00% # Bytes accessed per row activation
system.mem_ctrls.dram.bytesPerActivate::total           82                       # Bytes accessed per row activation
system.mem_ctrls.dram.bytesRead                 31040                       # Total number of bytes read from DRAM
system.mem_ctrls.dram.bytesWritten               6144                       # Total number of bytes written to DRAM
system.mem_ctrls.dram.avgRdBW             1153.003232                       # Average DRAM read bandwidth in MiBytes/s
system.mem_ctrls.dram.avgWrBW              228.223320                       # Average DRAM write bandwidth in MiBytes/s
system.mem_ctrls.dram.peakBW                 12800.00                       # Theoretical peak bandwidth in MiByte/s
system.mem_ctrls.dram.busUtil                   10.79                       # Data bus utilization in percentage
system.mem_ctrls.dram.busUtilRead                9.01                       # Data bus utilization in percentage for reads
system.mem_ctrls.dram.busUtilWrite               1.78                       # Data bus utilization in percentage for writes
system.mem_ctrls.dram.pageHitRate               83.82                       # Row buffer hit rate, read and write combined
system.mem_ctrls.dram.power_state.pwrStateResidencyTicks::UNDEFINED     26921000                       # Cumulative time (in ticks) in various power states
system.mem_ctrls.dram.rank0.actEnergy          478380                       # Energy for activate commands per rank (pJ)
system.mem_ctrls.dram.rank0.preEnergy          231495                       # Energy for precharge commands per rank (pJ)
system.mem_ctrls.dram.rank0.readEnergy        2663220                       # Energy for read commands per rank (pJ)
system.mem_ctrls.dram.rank0.writeEnergy        495900                       # Energy for write commands per rank (pJ)
system.mem_ctrls.dram.rank0.refreshEnergy 1843920.000000                       # Energy for refresh commands per rank (pJ)
system.mem_ctrls.dram.rank0.actBackEnergy     12237330                       # Energy for active background per rank (pJ)
system.mem_ctrls.dram.rank0.preBackEnergy        32640                       # Energy for precharge background per rank (pJ)
system.mem_ctrls.dram.rank0.actPowerDownEnergy            0                       # Energy for active power-down per rank (pJ)
system.mem_ctrls.dram.rank0.prePowerDownEnergy            0                       # Energy for precharge power-down per rank (pJ)
system.mem_ctrls.dram.rank0.selfRefreshEnergy            0                       # Energy for self refresh per rank (pJ)
system.mem_ctrls.dram.rank0.totalEnergy      17982885                       # Total energy per rank (pJ)
system.mem_ctrls.dram.rank0.averagePower   667.987259                       # Core power per rank (mW)
system.mem_ctrls.dram.rank0.totalIdleTime            0                       # Total Idle time Per DRAM Rank
system.mem_ctrls.dram.rank0.pwrStateTime::IDLE         1500                       # Time in different power states
system.mem_ctrls.dram.rank0.pwrStateTime::REF       780000                       # Time in different power states
system.mem_ctrls.dram.rank0.pwrStateTime::SREF            0                       # Time in different power states
system.mem_ctrls.dram.rank0.pwrStateTime::PRE_PDN            0                       # Time in different power states
system.mem_ctrls.dram.rank0.pwrStateTime::ACT     26139500                       # Time in different power states
system.mem_ctrls.dram.rank0.pwrStateTime::ACT_PDN            0                       # Time in different power states
system.mem_ctrls.dram.rank1.actEnergy          192780                       # Energy for activate commands per rank (pJ)
system.mem_ctrls.dram.rank1.preEnergy           79695                       # Energy for precharge commands per rank (pJ)
system.mem_ctrls.dram.rank1.readEnergy         799680                       # Energy for read commands per rank (pJ)
system.mem_ctrls.dram.rank1.writeEnergy          5220                       # Energy for write commands per rank (pJ)
system.mem_ctrls.dram.rank1.refreshEnergy 1843920.000000                       # Energy for refresh commands per rank (pJ)
system.mem_ctrls.dram.rank1.actBackEnergy     11842890                       # Energy for active background per rank (pJ)
system.mem_ctrls.dram.rank1.preBackEnergy       364800                       # Energy for precharge background per rank (pJ)
system.mem_ctrls.dram.rank1.actPowerDownEnergy            0                       # Energy for active power-down per rank (pJ)
system.mem_ctrls.dram.rank1.prePowerDownEnergy            0                       # Energy for precharge power-down per rank (pJ)
system.mem_ctrls.dram.rank1.selfRefreshEnergy            0                       # Energy for self refresh per rank (pJ)
system.mem_ctrls.dram.rank1.totalEnergy      15128985                       # Total energy per rank (pJ)
system.mem_ctrls.dram.rank1.averagePower   561.977081                       # Core power per rank (mW)
system.mem_ctrls.dram.rank1.totalIdleTime            0                       # Total Idle time Per DRAM Rank
system.mem_ctrls.dram.rank1.pwrStateTime::IDLE       851500                       # Time in different power states
system.mem_ctrls.dram.rank1.pwrStateTime::REF       780000                       # Time in different power states
system.mem_ctrls.dram.rank1.pwrStateTime::SREF            0                       # Time in different power states
system.mem_ctrls.dram.rank1.pwrStateTime::PRE_PDN            0                       # Time in different power states
system.mem_ctrls.dram.rank1.pwrStateTime::ACT     25289500                       # Time in different power states
system.mem_ctrls.dram.rank1.pwrStateTime::ACT_PDN            0                       # Time in different power states
system.mem_ctrls.power_state.pwrStateResidencyTicks::UNDEFINED     26921000                       # Cumulative time (in ticks) in various power states
system.membus.trans_dist::ReadResp                455                       # Transaction distribution
system.membus.trans_dist::WritebackClean          152                       # Transaction distribution
system.membus.trans_dist::ReadExReq                43                       # Transaction distribution
system.membus.trans_dist::ReadExResp               43                       # Transaction distribution
system.membus.trans_dist::ReadCleanReq            351                       # Transaction distribution
system.membus.trans_dist::ReadSharedReq           104                       # Transaction distribution
system.membus.pkt_count_system.cpu.icache.mem_side_port::system.mem_ctrls.port          854                       # Packet count per connected requestor and responder (bytes)
system.membus.pkt_count_system.cpu.dcache.mem_side_port::system.mem_ctrls.port          294                       # Packet count per connected requestor and responder (bytes)
system.membus.pkt_count::total                   1148                       # Packet count per connected requestor and responder (bytes)
system.membus.pkt_size_system.cpu.icache.mem_side_port::system.mem_ctrls.port        32192                       # Cumulative packet size per connected requestor and responder (bytes)
system.membus.pkt_size_system.cpu.dcache.mem_side_port::system.mem_ctrls.port         9408                       # Cumulative packet size per connected requestor and responder (bytes)
system.membus.pkt_size::total                   41600                       # Cumulative packet size per connected requestor and responder (bytes)
system.membus.snoops                                0                       # Total snoops (count)
system.membus.snoopTraffic                          0                       # Total snoop traffic (bytes)
system.membus.snoop_fanout::samples               498                       # Request fanout histogram
system.membus.snoop_fanout::mean             0.106426                       # Request fanout histogram
system.membus.snoop_fanout::stdev            0.308692                       # Request fanout histogram
system.membus.snoop_fanout::underflows              0      0.00%      0.00% # Request fanout histogram
system.membus.snoop_fanout::0                     445     89.36%     89.36% # Request fanout histogram
system.membus.snoop_fanout::1                      53     10.64%    100.00% # Request fanout histogram
system.membus.snoop_fanout::2                       0      0.00%    100.00% # Request fanout histogram
system.membus.snoop_fanout::overflows               0      0.00%    100.00% # Request fanout histogram
system.membus.snoop_fanout::min_value               0                       # Request fanout histogram
system.membus.snoop_fanout::max_value               1                       # Request fanout histogram
system.membus.snoop_fanout::total                 498                       # Request fanout histogram
system.membus.power_state.pwrStateResidencyTicks::UNDEFINED     26921000                       # Cumulative time (in ticks) in various power states
system.membus.reqLayer0.occupancy             1337500                       # Layer occupancy (ticks)
system.membus.reqLayer0.utilization               5.0                       # Layer utilization (%)
system.membus.respLayer1.occupancy            1858500                       # Layer occupancy (ticks)
system.membus.respLayer1.utilization              6.9                       # Layer utilization (%)
system.membus.respLayer2.occupancy             791250                       # Layer occupancy (ticks)
system.membus.respLayer2.utilization              2.9                       # Layer utilization (%)
system.voltage_domain.voltage                       1                       # Voltage in Volts

---------- End Simulation Statistics   ----------
