
---------- Begin Simulation Statistics ----------
final_tick                                   32985000                       # Number of ticks from beginning of simulation (restored from checkpoints and never reset)
host_inst_rate                                 173721                       # Simulator instruction rate (inst/s)
host_mem_usage                                 653236                       # Number of bytes of host memory used
host_op_rate                                   200367                       # Simulator op (including micro ops) rate (op/s)
host_seconds                                     0.05                       # Real time elapsed on the host
host_tick_rate                              641955453                       # Simulator tick rate (ticks/s)
sim_freq                                 1000000000000                       # Frequency of simulated ticks
sim_insts                                        8909                       # Number of instructions simulated
sim_ops                                         10292                       # Number of ops (including micro ops) simulated
sim_seconds                                  0.000033                       # Number of seconds simulated
sim_ticks                                    32985000                       # Number of ticks simulated
system.cpu.committedInsts                        8909                       # Number of instructions committed
system.cpu.committedOps                         10292                       # Number of ops (including micro ops) committed
system.cpu.cpi                               7.404871                       # CPI: cycles per instruction
system.cpu.discardedOps                          1804                       # Number of ops (including micro ops) which were discarded before commit
system.cpu.idleCycles                           48719                       # Total number of cycles that the object has spent stopped
system.cpu.ipc                               0.135046                       # IPC: instructions per cycle
system.cpu.numCycles                            65970                       # number of cpu cycles simulated
system.cpu.numFetchSuspends                         0                       # Number of times Execute suspended instruction fetching
system.cpu.numWorkItemsCompleted                    0                       # number of work items this cpu completed
system.cpu.numWorkItemsStarted                      0                       # number of work items this cpu started
system.cpu.op_class_0::No_OpClass                   0      0.00%      0.00% # Class of committed instruction
system.cpu.op_class_0::IntAlu                    7128     69.26%     69.26% # Class of committed instruction
system.cpu.op_class_0::IntMult                     48      0.47%     69.72% # Class of committed instruction
system.cpu.op_class_0::IntDiv                       0      0.00%     69.72% # Class of committed instruction
system.cpu.op_class_0::FloatAdd                     0      0.00%     69.72% # Class of committed instruction
system.cpu.op_class_0::FloatCmp                     0      0.00%     69.72% # Class of committed instruction
system.cpu.op_class_0::FloatCvt                     0      0.00%     69.72% # Class of committed instruction
system.cpu.op_class_0::FloatMult                    0      0.00%     69.72% # Class of committed instruction
system.cpu.op_class_0::FloatMultAcc                 0      0.00%     69.72% # Class of committed instruction
system.cpu.op_class_0::FloatDiv                     0      0.00%     69.72% # Class of committed instruction
system.cpu.op_class_0::FloatMisc                    0      0.00%     69.72% # Class of committed instruction
system.cpu.op_class_0::FloatSqrt                    0      0.00%     69.72% # Class of committed instruction
system.cpu.op_class_0::SimdAdd                      0      0.00%     69.72% # Class of committed instruction
system.cpu.op_class_0::SimdAddAcc                   0      0.00%     69.72% # Class of committed instruction
system.cpu.op_class_0::SimdAlu                      0      0.00%     69.72% # Class of committed instruction
system.cpu.op_class_0::SimdCmp                      0      0.00%     69.72% # Class of committed instruction
system.cpu.op_class_0::SimdCvt                      0      0.00%     69.72% # Class of committed instruction
system.cpu.op_class_0::SimdMisc                     0      0.00%     69.72% # Class of committed instruction
system.cpu.op_class_0::SimdMult                     0      0.00%     69.72% # Class of committed instruction
system.cpu.op_class_0::SimdMultAcc                  0      0.00%     69.72% # Class of committed instruction
system.cpu.op_class_0::SimdShift                    0      0.00%     69.72% # Class of committed instruction
system.cpu.op_class_0::SimdShiftAcc                 0      0.00%     69.72% # Class of committed instruction
system.cpu.op_class_0::SimdDiv                      0      0.00%     69.72% # Class of committed instruction
system.cpu.op_class_0::SimdSqrt                     0      0.00%     69.72% # Class of committed instruction
system.cpu.op_class_0::SimdFloatAdd                 0      0.00%     69.72% # Class of committed instruction
system.cpu.op_class_0::SimdFloatAlu                 0      0.00%     69.72% # Class of committed instruction
system.cpu.op_class_0::SimdFloatCmp                 0      0.00%     69.72% # Class of committed instruction
system.cpu.op_class_0::SimdFloatCvt                 0      0.00%     69.72% # Class of committed instruction
system.cpu.op_class_0::SimdFloatDiv                 0      0.00%     69.72% # Class of committed instruction
system.cpu.op_class_0::SimdFloatMisc               21      0.20%     69.93% # Class of committed instruction
system.cpu.op_class_0::SimdFloatMult                0      0.00%     69.93% # Class of committed instruction
system.cpu.op_class_0::SimdFloatMultAcc             0      0.00%     69.93% # Class of committed instruction
system.cpu.op_class_0::SimdFloatSqrt                0      0.00%     69.93% # Class of committed instruction
system.cpu.op_class_0::SimdReduceAdd                0      0.00%     69.93% # Class of committed instruction
system.cpu.op_class_0::SimdReduceAlu                0      0.00%     69.93% # Class of committed instruction
system.cpu.op_class_0::SimdReduceCmp                0      0.00%     69.93% # Class of committed instruction
system.cpu.op_class_0::SimdFloatReduceAdd            0      0.00%     69.93% # Class of committed instruction
system.cpu.op_class_0::SimdFloatReduceCmp            0      0.00%     69.93% # Class of committed instruction
system.cpu.op_class_0::SimdAes                      0      0.00%     69.93% # Class of committed instruction
system.cpu.op_class_0::SimdAesMix                   0      0.00%     69.93% # Class of committed instruction
system.cpu.op_class_0::SimdSha1Hash                 0      0.00%     69.93% # Class of committed instruction
system.cpu.op_class_0::SimdSha1Hash2                0      0.00%     69.93% # Class of committed instruction
system.cpu.op_class_0::SimdSha256Hash               0      0.00%     69.93% # Class of committed instruction
system.cpu.op_class_0::SimdSha256Hash2              0      0.00%     69.93% # Class of committed instruction
system.cpu.op_class_0::SimdShaSigma2                0      0.00%     69.93% # Class of committed instruction
system.cpu.op_class_0::SimdShaSigma3                0      0.00%     69.93% # Class of committed instruction
system.cpu.op_class_0::SimdPredAlu                  0      0.00%     69.93% # Class of committed instruction
system.cpu.op_class_0::MemRead                   1483     14.41%     84.34% # Class of committed instruction
system.cpu.op_class_0::MemWrite                  1612     15.66%    100.00% # Class of committed instruction
system.cpu.op_class_0::FloatMemRead                 0      0.00%    100.00% # Class of committed instruction
system.cpu.op_class_0::FloatMemWrite                0      0.00%    100.00% # Class of committed instruction
system.cpu.op_class_0::IprAccess                    0      0.00%    100.00% # Class of committed instruction
system.cpu.op_class_0::InstPrefetch                 0      0.00%    100.00% # Class of committed instruction
system.cpu.op_class_0::total                    10292                       # Class of committed instruction
system.cpu.tickCycles                           17251                       # Number of cycles that the object actually ticked
system.cpu.workload.numSyscalls                    13                       # Number of system calls
system.membus.snoop_filter.hit_multi_requests            6                       # Number of requests hitting in the snoop filter with multiple (>1) holders of the requested data.
system.membus.snoop_filter.hit_multi_snoops            0                       # Number of snoops hitting in the snoop filter with multiple (>1) holders of the requested data.
system.membus.snoop_filter.hit_single_requests          183                       # Number of requests hitting in the snoop filter with a single holder of the requested data.
system.membus.snoop_filter.hit_single_snoops            0                       # Number of snoops hitting in the snoop filter with a single holder of the requested data.
system.membus.snoop_filter.tot_requests           716                       # Total number of requests made to the snoop filter.
system.membus.snoop_filter.tot_snoops               0                       # Total number of snoops made to the snoop filter.
system.clk_domain.clock                          1000                       # Clock period in ticks
system.cpu.branchPred.lookups                    3186                       # Number of BP lookups
system.cpu.branchPred.condPredicted              2094                       # Number of conditional branches predicted
system.cpu.branchPred.condIncorrect               531                       # Number of conditional branches incorrect
system.cpu.branchPred.BTBLookups                 1487                       # Number of BTB lookups
system.cpu.branchPred.BTBHits                     660                       # Number of BTB hits
system.cpu.branchPred.BTBHitPct             44.384667                       # BTB Hit Percentage
system.cpu.branchPred.RASUsed                     282                       # Number of times the RAS was used to get a target.
system.cpu.branchPred.RASIncorrect                  2                       # Number of incorrect RAS predictions.
system.cpu.branchPred.indirectLookups             151                       # Number of indirect predictor lookups.
system.cpu.branchPred.indirectHits                 29                       # Number of indirect target hits.
system.cpu.branchPred.indirectMisses              122                       # Number of indirect misses.
system.cpu.branchPred.indirectMispredicted           63                       # Number of mispredicted indirect branches.
system.cpu.dcache.demand_hits::.cpu.data         3052                       # number of demand (read+write) hits
system.cpu.dcache.demand_hits::total             3052                       # number of demand (read+write) hits
system.cpu.dcache.overall_hits::.cpu.data         3073                       # number of overall hits
system.cpu.dcache.overall_hits::total            3073                       # number of overall hits
system.cpu.dcache.demand_misses::.cpu.data          200                       # number of demand (read+write) misses
system.cpu.dcache.demand_misses::total            200                       # number of demand (read+write) misses
system.cpu.dcache.overall_misses::.cpu.data          212                       # number of overall misses
system.cpu.dcache.overall_misses::total           212                       # number of overall misses
system.cpu.dcache.demand_miss_latency::.cpu.data     12606500                       # number of demand (read+write) miss cycles
system.cpu.dcache.demand_miss_latency::total     12606500                       # number of demand (read+write) miss cycles
system.cpu.dcache.overall_miss_latency::.cpu.data     12606500                       # number of overall miss cycles
system.cpu.dcache.overall_miss_latency::total     12606500                       # number of overall miss cycles
system.cpu.dcache.demand_accesses::.cpu.data         3252                       # number of demand (read+write) accesses
system.cpu.dcache.demand_accesses::total         3252                       # number of demand (read+write) accesses
system.cpu.dcache.overall_accesses::.cpu.data         3285                       # number of overall (read+write) accesses
system.cpu.dcache.overall_accesses::total         3285                       # number of overall (read+write) accesses
system.cpu.dcache.demand_miss_rate::.cpu.data     0.061501                       # miss rate for demand accesses
system.cpu.dcache.demand_miss_rate::total     0.061501                       # miss rate for demand accesses
system.cpu.dcache.overall_miss_rate::.cpu.data     0.064536                       # miss rate for overall accesses
system.cpu.dcache.overall_miss_rate::total     0.064536                       # miss rate for overall accesses
system.cpu.dcache.demand_avg_miss_latency::.cpu.data 63032.500000                       # average overall miss latency
system.cpu.dcache.demand_avg_miss_latency::total 63032.500000                       # average overall miss latency
system.cpu.dcache.overall_avg_miss_latency::.cpu.data 59464.622642                       # average overall miss latency
system.cpu.dcache.overall_avg_miss_latency::total 59464.622642                       # average overall miss latency
system.cpu.dcache.blocked_cycles::no_mshrs            0                       # number of cycles access was blocked
system.cpu.dcache.blocked_cycles::no_targets            0                       # number of cycles access was blocked
system.cpu.dcache.blocked::no_mshrs                 0                       # number of cycles access was blocked
system.cpu.dcache.blocked::no_targets               0                       # number of cycles access was blocked
system.cpu.dcache.avg_blocked_cycles::no_mshrs          nan                       # average number of cycles each access was blocked
system.cpu.dcache.avg_blocked_cycles::no_targets          nan                       # average number of cycles each access was blocked
system.cpu.dcache.writebacks::.writebacks            1                       # number of writebacks
system.cpu.dcache.writebacks::total                 1                       # number of writebacks
system.cpu.dcache.demand_mshr_hits::.cpu.data           48                       # number of demand (read+write) MSHR hits
system.cpu.dcache.demand_mshr_hits::total           48                       # number of demand (read+write) MSHR hits
system.cpu.dcache.overall_mshr_hits::.cpu.data           48                       # number of overall MSHR hits
system.cpu.dcache.overall_mshr_hits::total           48                       # number of overall MSHR hits
system.cpu.dcache.demand_mshr_misses::.cpu.data          152                       # number of demand (read+write) MSHR misses
system.cpu.dcache.demand_mshr_misses::total          152                       # number of demand (read+write) MSHR misses
system.cpu.dcache.overall_mshr_misses::.cpu.data          161                       # number of overall MSHR misses
system.cpu.dcache.overall_mshr_misses::total          161                       # number of overall MSHR misses
system.cpu.dcache.demand_mshr_miss_latency::.cpu.data      9306500                       # number of demand (read+write) MSHR miss cycles
system.cpu.dcache.demand_mshr_miss_latency::total      9306500                       # number of demand (read+write) MSHR miss cycles
system.cpu.dcache.overall_mshr_miss_latency::.cpu.data     10350500                       # number of overall MSHR miss cycles
system.cpu.dcache.overall_mshr_miss_latency::total     10350500                       # number of overall MSHR miss cycles
system.cpu.dcache.demand_mshr_miss_rate::.cpu.data     0.046740                       # mshr miss rate for demand accesses
system.cpu.dcache.demand_mshr_miss_rate::total     0.046740                       # mshr miss rate for demand accesses
system.cpu.dcache.overall_mshr_miss_rate::.cpu.data     0.049011                       # mshr miss rate for overall accesses
system.cpu.dcache.overall_mshr_miss_rate::total     0.049011                       # mshr miss rate for overall accesses
system.cpu.dcache.demand_avg_mshr_miss_latency::.cpu.data 61226.973684                       # average overall mshr miss latency
system.cpu.dcache.demand_avg_mshr_miss_latency::total 61226.973684                       # average overall mshr miss latency
system.cpu.dcache.overall_avg_mshr_miss_latency::.cpu.data 64288.819876                       # average overall mshr miss latency
system.cpu.dcache.overall_avg_mshr_miss_latency::total 64288.819876                       # average overall mshr miss latency
system.cpu.dcache.replacements                      2                       # number of replacements
system.cpu.dcache.ReadReq_hits::.cpu.data         1597                       # number of ReadReq hits
system.cpu.dcache.ReadReq_hits::total            1597                       # number of ReadReq hits
system.cpu.dcache.ReadReq_misses::.cpu.data           97                       # number of ReadReq misses
system.cpu.dcache.ReadReq_misses::total            97                       # number of ReadReq misses
system.cpu.dcache.ReadReq_miss_latency::.cpu.data      6275500                       # number of ReadReq miss cycles
system.cpu.dcache.ReadReq_miss_latency::total      6275500                       # number of ReadReq miss cycles
system.cpu.dcache.ReadReq_accesses::.cpu.data         1694                       # number of ReadReq accesses(hits+misses)
system.cpu.dcache.ReadReq_accesses::total         1694                       # number of ReadReq accesses(hits+misses)
system.cpu.dcache.ReadReq_miss_rate::.cpu.data     0.057261                       # miss rate for ReadReq accesses
system.cpu.dcache.ReadReq_miss_rate::total     0.057261                       # miss rate for ReadReq accesses
system.cpu.dcache.ReadReq_avg_miss_latency::.cpu.data 64695.876289                       # average ReadReq miss latency
system.cpu.dcache.ReadReq_avg_miss_latency::total 64695.876289                       # average ReadReq miss latency
system.cpu.dcache.ReadReq_mshr_hits::.cpu.data            8                       # number of ReadReq MSHR hits
system.cpu.dcache.ReadReq_mshr_hits::total            8                       # number of ReadReq MSHR hits
system.cpu.dcache.ReadReq_mshr_misses::.cpu.data           89                       # number of ReadReq MSHR misses
system.cpu.dcache.ReadReq_mshr_misses::total           89                       # number of ReadReq MSHR misses
system.cpu.dcache.ReadReq_mshr_miss_latency::.cpu.data      5502000                       # number of ReadReq MSHR miss cycles
system.cpu.dcache.ReadReq_mshr_miss_latency::total      5502000                       # number of ReadReq MSHR miss cycles
system.cpu.dcache.ReadReq_mshr_miss_rate::.cpu.data     0.052538                       # mshr miss rate for ReadReq accesses
system.cpu.dcache.ReadReq_mshr_miss_rate::total     0.052538                       # mshr miss rate for ReadReq accesses
system.cpu.dcache.ReadReq_avg_mshr_miss_latency::.cpu.data 61820.224719                       # average ReadReq mshr miss latency
system.cpu.dcache.ReadReq_avg_mshr_miss_latency::total 61820.224719                       # average ReadReq mshr miss latency
system.cpu.dcache.WriteReq_hits::.cpu.data         1455                       # number of WriteReq hits
system.cpu.dcache.WriteReq_hits::total           1455                       # number of WriteReq hits
system.cpu.dcache.WriteReq_misses::.cpu.data          103                       # number of WriteReq misses
system.cpu.dcache.WriteReq_misses::total          103                       # number of WriteReq misses
system.cpu.dcache.WriteReq_miss_latency::.cpu.data      6331000                       # number of WriteReq miss cycles
system.cpu.dcache.WriteReq_miss_latency::total      6331000                       # number of WriteReq miss cycles
system.cpu.dcache.WriteReq_accesses::.cpu.data         1558                       # number of WriteReq accesses(hits+misses)
system.cpu.dcache.WriteReq_accesses::total         1558                       # number of WriteReq accesses(hits+misses)
system.cpu.dcache.WriteReq_miss_rate::.cpu.data     0.066110                       # miss rate for WriteReq accesses
system.cpu.dcache.WriteReq_miss_rate::total     0.066110                       # miss rate for WriteReq accesses
system.cpu.dcache.WriteReq_avg_miss_latency::.cpu.data 61466.019417                       # average WriteReq miss latency
system.cpu.dcache.WriteReq_avg_miss_latency::total 61466.019417                       # average WriteReq miss latency
system.cpu.dcache.WriteReq_mshr_hits::.cpu.data           40                       # number of WriteReq MSHR hits
system.cpu.dcache.WriteReq_mshr_hits::total           40                       # number of WriteReq MSHR hits
system.cpu.dcache.WriteReq_mshr_misses::.cpu.data           63                       # number of WriteReq MSHR misses
system.cpu.dcache.WriteReq_mshr_misses::total           63                       # number of WriteReq MSHR misses
system.cpu.dcache.WriteReq_mshr_miss_latency::.cpu.data      3804500                       # number of WriteReq MSHR miss cycles
system.cpu.dcache.WriteReq_mshr_miss_latency::total      3804500                       # number of WriteReq MSHR miss cycles
system.cpu.dcache.WriteReq_mshr_miss_rate::.cpu.data     0.040436                       # mshr miss rate for WriteReq accesses
system.cpu.dcache.WriteReq_mshr_miss_rate::total     0.040436                       # mshr miss rate for WriteReq accesses
system.cpu.dcache.WriteReq_avg_mshr_miss_latency::.cpu.data 60388.888889                       # average WriteReq mshr miss latency
system.cpu.dcache.WriteReq_avg_mshr_miss_latency::total 60388.888889                       # average WriteReq mshr miss latency
system.cpu.dcache.SoftPFReq_hits::.cpu.data           21                       # number of SoftPFReq hits
system.cpu.dcache.SoftPFReq_hits::total            21                       # number of SoftPFReq hits
system.cpu.dcache.SoftPFReq_misses::.cpu.data           12                       # number of SoftPFReq misses
system.cpu.dcache.SoftPFReq_misses::total           12                       # number of SoftPFReq misses
system.cpu.dcache.SoftPFReq_accesses::.cpu.data           33                       # number of SoftPFReq accesses(hits+misses)
system.cpu.dcache.SoftPFReq_accesses::total           33                       # number of SoftPFReq accesses(hits+misses)
system.cpu.dcache.SoftPFReq_miss_rate::.cpu.data     0.363636                       # miss rate for SoftPFReq accesses
system.cpu.dcache.SoftPFReq_miss_rate::total     0.363636                       # miss rate for SoftPFReq accesses
system.cpu.dcache.SoftPFReq_mshr_misses::.cpu.data            9                       # number of SoftPFReq MSHR misses
system.cpu.dcache.SoftPFReq_mshr_misses::total            9                       # number of SoftPFReq MSHR misses
system.cpu.dcache.SoftPFReq_mshr_miss_latency::.cpu.data      1044000                       # number of SoftPFReq MSHR miss cycles
system.cpu.dcache.SoftPFReq_mshr_miss_latency::total      1044000                       # number of SoftPFReq MSHR miss cycles
system.cpu.dcache.SoftPFReq_mshr_miss_rate::.cpu.data     0.272727                       # mshr miss rate for SoftPFReq accesses
system.cpu.dcache.SoftPFReq_mshr_miss_rate::total     0.272727                       # mshr miss rate for SoftPFReq accesses
system.cpu.dcache.SoftPFReq_avg_mshr_miss_latency::.cpu.data       116000                       # average SoftPFReq mshr miss latency
system.cpu.dcache.SoftPFReq_avg_mshr_miss_latency::total       116000                       # average SoftPFReq mshr miss latency
system.cpu.dcache.LoadLockedReq_hits::.cpu.data           18                       # number of LoadLockedReq hits
system.cpu.dcache.LoadLockedReq_hits::total           18                       # number of LoadLockedReq hits
system.cpu.dcache.LoadLockedReq_accesses::.cpu.data           18                       # number of LoadLockedReq accesses(hits+misses)
system.cpu.dcache.LoadLockedReq_accesses::total           18                       # number of LoadLockedReq accesses(hits+misses)
system.cpu.dcache.StoreCondReq_hits::.cpu.data           18                       # number of StoreCondReq hits
system.cpu.dcache.StoreCondReq_hits::total           18                       # number of StoreCondReq hits
system.cpu.dcache.StoreCondReq_accesses::.cpu.data           18                       # number of StoreCondReq accesses(hits+misses)
system.cpu.dcache.StoreCondReq_accesses::total           18                       # number of StoreCondReq accesses(hits+misses)
system.cpu.dcache.power_state.pwrStateResidencyTicks::UNDEFINED     32985000                       # Cumulative time (in ticks) in various power states
system.cpu.dcache.tags.tagsinuse            94.272550                       # Cycle average of tags in use
system.cpu.dcache.tags.total_refs                3270                       # Total number of references to valid blocks.
system.cpu.dcache.tags.sampled_refs               161                       # Sample count of references to valid blocks.
system.cpu.dcache.tags.avg_refs             20.310559                       # Average number of references to valid blocks.
system.cpu.dcache.tags.warmup_cycle            145000                       # Cycle when the warmup percentage was hit.
system.cpu.dcache.tags.occ_blocks::.cpu.data    94.272550                       # Average occupied blocks per requestor
system.cpu.dcache.tags.occ_percent::.cpu.data     0.092063                       # Average percentage of cache occupancy
system.cpu.dcache.tags.occ_percent::total     0.092063                       # Average percentage of cache occupancy
system.cpu.dcache.tags.occ_task_id_blocks::1024          159                       # Occupied blocks per task id
system.cpu.dcache.tags.age_task_id_blocks_1024::0           32                       # Occupied blocks per task id
system.cpu.dcache.tags.age_task_id_blocks_1024::1          127                       # Occupied blocks per task id
system.cpu.dcache.tags.occ_task_id_percent::1024     0.155273                       # Percentage of cache occupancy per task id
system.cpu.dcache.tags.tag_accesses              6803                       # Number of tag accesses
system.cpu.dcache.tags.data_accesses             6803                       # Number of data accesses
system.cpu.dcache.tags.power_state.pwrStateResidencyTicks::UNDEFINED     32985000                       # Cumulative time (in ticks) in various power states
system.cpu.dtb.instHits                             0                       # ITB inst hits
system.cpu.dtb.instMisses                           0                       # ITB inst misses
system.cpu.dtb.readHits                             0                       # DTB read hits
system.cpu.dtb.readMisses                           0                       # DTB read misses
system.cpu.dtb.writeHits                            0                       # DTB write hits
system.cpu.dtb.writeMisses                          0                       # DTB write misses
system.cpu.dtb.inserts                              0                       # Number of times an entry is inserted into the TLB
system.cpu.dtb.flushTlb                             0                       # Number of times complete TLB was flushed
system.cpu.dtb.flushTlbMva                          0                       # Number of times TLB was flushed by MVA
system.cpu.dtb.flushTlbMvaAsid                      0                       # Number of times TLB was flushed by MVA & ASID
system.cpu.dtb.flushTlbAsid                         0                       # Number of times TLB was flushed by ASID
system.cpu.dtb.flushedEntries                       0                       # Number of entries that have been flushed from TLB
system.cpu.dtb.alignFaults                          0                       # Number of TLB faults due to alignment restrictions
system.cpu.dtb.prefetchFaults                       0                       # Number of TLB faults due to prefetch
system.cpu.dtb.domainFaults                         0                       # Number of TLB faults due to domain restrictions
system.cpu.dtb.permsFaults                          0                       # Number of TLB faults due to permissions restrictions
system.cpu.dtb.readAccesses                         0                       # DTB read accesses
system.cpu.dtb.writeAccesses                        0                       # DTB write accesses
system.cpu.dtb.instAccesses                         0                       # ITB inst accesses
system.cpu.dtb.hits                                 0                       # Total TLB (inst and data) hits
system.cpu.dtb.misses                               0                       # Total TLB (inst and data) misses
system.cpu.dtb.accesses                             0                       # Total TLB (inst and data) accesses
system.cpu.dtb.stage2_mmu.stage2_tlb.instHits            0                       # ITB inst hits
system.cpu.dtb.stage2_mmu.stage2_tlb.instMisses            0                       # ITB inst misses
system.cpu.dtb.stage2_mmu.stage2_tlb.readHits            0                       # DTB read hits
system.cpu.dtb.stage2_mmu.stage2_tlb.readMisses            0                       # DTB read misses
system.cpu.dtb.stage2_mmu.stage2_tlb.writeHits            0                       # DTB write hits
system.cpu.dtb.stage2_mmu.stage2_tlb.writeMisses            0                       # DTB write misses
system.cpu.dtb.stage2_mmu.stage2_tlb.inserts            0                       # Number of times an entry is inserted into the TLB
system.cpu.dtb.stage2_mmu.stage2_tlb.flushTlb            0                       # Number of times complete TLB was flushed
system.cpu.dtb.stage2_mmu.stage2_tlb.flushTlbMva            0                       # Number of times TLB was flushed by MVA
system.cpu.dtb.stage2_mmu.stage2_tlb.flushTlbMvaAsid            0                       # Number of times TLB was flushed by MVA & ASID
system.cpu.dtb.stage2_mmu.stage2_tlb.flushTlbAsid            0                       # Number of times TLB was flushed by ASID
system.cpu.dtb.stage2_mmu.stage2_tlb.flushedEntries            0                       # Number of entries that have been flushed from TLB
system.cpu.dtb.stage2_mmu.stage2_tlb.alignFaults            0                       # Number of TLB faults due to alignment restrictions
system.cpu.dtb.stage2_mmu.stage2_tlb.prefetchFaults            0                       # Number of TLB faults due to prefetch
system.cpu.dtb.stage2_mmu.stage2_tlb.domainFaults            0                       # Number of TLB faults due to domain restrictions
system.cpu.dtb.stage2_mmu.stage2_tlb.permsFaults            0                       # Number of TLB faults due to permissions restrictions
system.cpu.dtb.stage2_mmu.stage2_tlb.readAccesses            0                       # DTB read accesses
system.cpu.dtb.stage2_mmu.stage2_tlb.writeAccesses            0                       # DTB write accesses
system.cpu.dtb.stage2_mmu.stage2_tlb.instAccesses            0                       # ITB inst accesses
system.cpu.dtb.stage2_mmu.stage2_tlb.hits            0                       # Total TLB (inst and data) hits
system.cpu.dtb.stage2_mmu.stage2_tlb.misses            0                       # Total TLB (inst and data) misses
system.cpu.dtb.stage2_mmu.stage2_tlb.accesses            0                       # Total TLB (inst and data) accesses
system.cpu.dtb.stage2_mmu.stage2_tlb.walker.walks            0                       # Table walker walks requested
system.cpu.dtb.stage2_mmu.stage2_tlb.walker.requestOrigin_Requested::Data            0                       # Table walker requests started/completed, data/inst
system.cpu.dtb.stage2_mmu.stage2_tlb.walker.requestOrigin_Requested::Inst            0                       # Table walker requests started/completed, data/inst
system.cpu.dtb.stage2_mmu.stage2_tlb.walker.requestOrigin_Requested::total            0                       # Table walker requests started/completed, data/inst
system.cpu.dtb.stage2_mmu.stage2_tlb.walker.requestOrigin_Completed::Data            0                       # Table walker requests started/completed, data/inst
system.cpu.dtb.stage2_mmu.stage2_tlb.walker.requestOrigin_Completed::Inst            0                       # Table walker requests started/completed, data/inst
system.cpu.dtb.stage2_mmu.stage2_tlb.walker.requestOrigin_Completed::total            0                       # Table walker requests started/completed, data/inst
system.cpu.dtb.stage2_mmu.stage2_tlb.walker.requestOrigin::total            0                       # Table walker requests started/completed, data/inst
system.cpu.dtb.stage2_mmu.stage2_tlb.walker.power_state.pwrStateResidencyTicks::UNDEFINED     32985000                       # Cumulative time (in ticks) in various power states
system.cpu.dtb.walker.walks                         0                       # Table walker walks requested
system.cpu.dtb.walker.requestOrigin_Requested::Data            0                       # Table walker requests started/completed, data/inst
system.cpu.dtb.walker.requestOrigin_Requested::Inst            0                       # Table walker requests started/completed, data/inst
system.cpu.dtb.walker.requestOrigin_Requested::total            0                       # Table walker requests started/completed, data/inst
system.cpu.dtb.walker.requestOrigin_Completed::Data            0                       # Table walker requests started/completed, data/inst
system.cpu.dtb.walker.requestOrigin_Completed::Inst            0                       # Table walker requests started/completed, data/inst
system.cpu.dtb.walker.requestOrigin_Completed::total            0                       # Table walker requests started/completed, data/inst
system.cpu.dtb.walker.requestOrigin::total            0                       # Table walker requests started/completed, data/inst
system.cpu.dtb.walker.power_state.pwrStateResidencyTicks::UNDEFINED     32985000                       # Cumulative time (in ticks) in various power states
system.cpu.fetch2.intInstructions                9233                       # Number of integer instructions successfully decoded
system.cpu.fetch2.fpInstructions                    0                       # Number of floating point instructions successfully decoded
system.cpu.fetch2.vecInstructions                   0                       # Number of SIMD instructions successfully decoded
system.cpu.fetch2.loadInstructions               2111                       # Number of memory load instructions successfully decoded
system.cpu.fetch2.storeInstructions              1270                       # Number of memory store instructions successfully decoded
system.cpu.fetch2.amoInstructions                   0                       # Number of memory atomic instructions successfully decoded
system.cpu.icache.demand_hits::.cpu.inst         3313                       # number of demand (read+write) hits
system.cpu.icache.demand_hits::total             3313                       # number of demand (read+write) hits
system.cpu.icache.overall_hits::.cpu.inst         3313                       # number of overall hits
system.cpu.icache.overall_hits::total            3313                       # number of overall hits
system.cpu.icache.demand_misses::.cpu.inst          388                       # number of demand (read+write) misses
system.cpu.icache.demand_misses::total            388                       # number of demand (read+write) misses
system.cpu.icache.overall_misses::.cpu.inst          388                       # number of overall misses
system.cpu.icache.overall_misses::total           388                       # number of overall misses
system.cpu.icache.demand_miss_latency::.cpu.inst     21691500                       # number of demand (read+write) miss cycles
system.cpu.icache.demand_miss_latency::total     21691500                       # number of demand (read+write) miss cycles
system.cpu.icache.overall_miss_latency::.cpu.inst     21691500                       # number of overall miss cycles
system.cpu.icache.overall_miss_latency::total     21691500                       # number of overall miss cycles
system.cpu.icache.demand_accesses::.cpu.inst         3701                       # number of demand (read+write) accesses
system.cpu.icache.demand_accesses::total         3701                       # number of demand (read+write) accesses
system.cpu.icache.overall_accesses::.cpu.inst         3701                       # number of overall (read+write) accesses
system.cpu.icache.overall_accesses::total         3701                       # number of overall (read+write) accesses
system.cpu.icache.demand_miss_rate::.cpu.inst     0.104837                       # miss rate for demand accesses
system.cpu.icache.demand_miss_rate::total     0.104837                       # miss rate for demand accesses
system.cpu.icache.overall_miss_rate::.cpu.inst     0.104837                       # miss rate for overall accesses
system.cpu.icache.overall_miss_rate::total     0.104837                       # miss rate for overall accesses
system.cpu.icache.demand_avg_miss_latency::.cpu.inst 55905.927835                       # average overall miss latency
system.cpu.icache.demand_avg_miss_latency::total 55905.927835                       # average overall miss latency
system.cpu.icache.overall_avg_miss_latency::.cpu.inst 55905.927835                       # average overall miss latency
system.cpu.icache.overall_avg_miss_latency::total 55905.927835                       # average overall miss latency
system.cpu.icache.blocked_cycles::no_mshrs            0                       # number of cycles access was blocked
system.cpu.icache.blocked_cycles::no_targets            0                       # number of cycles access was blocked
system.cpu.icache.blocked::no_mshrs                 0                       # number of cycles access was blocked
system.cpu.icache.blocked::no_targets               0                       # number of cycles access was blocked
system.cpu.icache.avg_blocked_cycles::no_mshrs          nan                       # average number of cycles each access was blocked
system.cpu.icache.avg_blocked_cycles::no_targets          nan                       # average number of cycles each access was blocked
system.cpu.icache.writebacks::.writebacks          165                       # number of writebacks
system.cpu.icache.writebacks::total               165                       # number of writebacks
system.cpu.icache.demand_mshr_misses::.cpu.inst          388                       # number of demand (read+write) MSHR misses
system.cpu.icache.demand_mshr_misses::total          388                       # number of demand (read+write) MSHR misses
system.cpu.icache.overall_mshr_misses::.cpu.inst          388                       # number of overall MSHR misses
system.cpu.icache.overall_mshr_misses::total          388                       # number of overall MSHR misses
system.cpu.icache.demand_mshr_miss_latency::.cpu.inst     21303500                       # number of demand (read+write) MSHR miss cycles
system.cpu.icache.demand_mshr_miss_latency::total     21303500                       # number of demand (read+write) MSHR miss cycles
system.cpu.icache.overall_mshr_miss_latency::.cpu.inst     21303500                       # number of overall MSHR miss cycles
system.cpu.icache.overall_mshr_miss_latency::total     21303500                       # number of overall MSHR miss cycles
system.cpu.icache.demand_mshr_miss_rate::.cpu.inst     0.104837                       # mshr miss rate for demand accesses
system.cpu.icache.demand_mshr_miss_rate::total     0.104837                       # mshr miss rate for demand accesses
system.cpu.icache.overall_mshr_miss_rate::.cpu.inst     0.104837                       # mshr miss rate for overall accesses
system.cpu.icache.overall_mshr_miss_rate::total     0.104837                       # mshr miss rate for overall accesses
system.cpu.icache.demand_avg_mshr_miss_latency::.cpu.inst 54905.927835                       # average overall mshr miss latency
system.cpu.icache.demand_avg_mshr_miss_latency::total 54905.927835                       # average overall mshr miss latency
system.cpu.icache.overall_avg_mshr_miss_latency::.cpu.inst 54905.927835                       # average overall mshr miss latency
system.cpu.icache.overall_avg_mshr_miss_latency::total 54905.927835                       # average overall mshr miss latency
system.cpu.icache.replacements                    165                       # number of replacements
system.cpu.icache.ReadReq_hits::.cpu.inst         3313                       # number of ReadReq hits
system.cpu.icache.ReadReq_hits::total            3313                       # number of ReadReq hits
system.cpu.icache.ReadReq_misses::.cpu.inst          388                       # number of ReadReq misses
system.cpu.icache.ReadReq_misses::total           388                       # number of ReadReq misses
system.cpu.icache.ReadReq_miss_latency::.cpu.inst     21691500                       # number of ReadReq miss cycles
system.cpu.icache.ReadReq_miss_latency::total     21691500                       # number of ReadReq miss cycles
system.cpu.icache.ReadReq_accesses::.cpu.inst         3701                       # number of ReadReq accesses(hits+misses)
system.cpu.icache.ReadReq_accesses::total         3701                       # number of ReadReq accesses(hits+misses)
system.cpu.icache.ReadReq_miss_rate::.cpu.inst     0.104837                       # miss rate for ReadReq accesses
system.cpu.icache.ReadReq_miss_rate::total     0.104837                       # miss rate for ReadReq accesses
system.cpu.icache.ReadReq_avg_miss_latency::.cpu.inst 55905.927835                       # average ReadReq miss latency
system.cpu.icache.ReadReq_avg_miss_latency::total 55905.927835                       # average ReadReq miss latency
system.cpu.icache.ReadReq_mshr_misses::.cpu.inst          388                       # number of ReadReq MSHR misses
system.cpu.icache.ReadReq_mshr_misses::total          388                       # number of ReadReq MSHR misses
system.cpu.icache.ReadReq_mshr_miss_latency::.cpu.inst     21303500                       # number of ReadReq MSHR miss cycles
system.cpu.icache.ReadReq_mshr_miss_latency::total     21303500                       # number of ReadReq MSHR miss cycles
system.cpu.icache.ReadReq_mshr_miss_rate::.cpu.inst     0.104837                       # mshr miss rate for ReadReq accesses
system.cpu.icache.ReadReq_mshr_miss_rate::total     0.104837                       # mshr miss rate for ReadReq accesses
system.cpu.icache.ReadReq_avg_mshr_miss_latency::.cpu.inst 54905.927835                       # average ReadReq mshr miss latency
system.cpu.icache.ReadReq_avg_mshr_miss_latency::total 54905.927835                       # average ReadReq mshr miss latency
system.cpu.icache.power_state.pwrStateResidencyTicks::UNDEFINED     32985000                       # Cumulative time (in ticks) in various power states
system.cpu.icache.tags.tagsinuse           149.521542                       # Cycle average of tags in use
system.cpu.icache.tags.total_refs                3701                       # Total number of references to valid blocks.
system.cpu.icache.tags.sampled_refs               388                       # Sample count of references to valid blocks.
system.cpu.icache.tags.avg_refs              9.538660                       # Average number of references to valid blocks.
system.cpu.icache.tags.warmup_cycle             77000                       # Cycle when the warmup percentage was hit.
system.cpu.icache.tags.occ_blocks::.cpu.inst   149.521542                       # Average occupied blocks per requestor
system.cpu.icache.tags.occ_percent::.cpu.inst     0.584069                       # Average percentage of cache occupancy
system.cpu.icache.tags.occ_percent::total     0.584069                       # Average percentage of cache occupancy
system.cpu.icache.tags.occ_task_id_blocks::1024          223                       # Occupied blocks per task id
system.cpu.icache.tags.age_task_id_blocks_1024::0          108                       # Occupied blocks per task id
system.cpu.icache.tags.age_task_id_blocks_1024::1          115                       # Occupied blocks per task id
system.cpu.icache.tags.occ_task_id_percent::1024     0.871094                       # Percentage of cache occupancy per task id
system.cpu.icache.tags.tag_accesses              7790                       # Number of tag accesses
system.cpu.icache.tags.data_accesses             7790                       # Number of data accesses
system.cpu.icache.tags.power_state.pwrStateResidencyTicks::UNDEFINED     32985000                       # Cumulative time (in ticks) in various power states
system.cpu.itb.instHits                             0                       # ITB inst hits
system.cpu.itb.instMisses                           0                       # ITB inst misses
system.cpu.itb.readHits                             0                       # DTB read hits
system.cpu.itb.readMisses                           0                       # DTB read misses
system.cpu.itb.writeHits                            0                       # DTB write hits
system.cpu.itb.writeMisses                          0                       # DTB write misses
system.cpu.itb.inserts                              0                       # Number of times an entry is inserted into the TLB
system.cpu.itb.flushTlb                             0                       # Number of times complete TLB was flushed
system.cpu.itb.flushTlbMva                          0                       # Number of times TLB was flushed by MVA
system.cpu.itb.flushTlbMvaAsid                      0                       # Number of times TLB was flushed by MVA & ASID
system.cpu.itb.flushTlbAsid                         0                       # Number of times TLB was flushed by ASID
system.cpu.itb.flushedEntries                       0                       # Number of entries that have been flushed from TLB
system.cpu.itb.alignFaults                          0                       # Number of TLB faults due to alignment restrictions
system.cpu.itb.prefetchFaults                       0                       # Number of TLB faults due to prefetch
system.cpu.itb.domainFaults                         0                       # Number of TLB faults due to domain restrictions
system.cpu.itb.permsFaults                          0                       # Number of TLB faults due to permissions restrictions
system.cpu.itb.readAccesses                         0                       # DTB read accesses
system.cpu.itb.writeAccesses                        0                       # DTB write accesses
system.cpu.itb.instAccesses                         0                       # ITB inst accesses
system.cpu.itb.hits                                 0                       # Total TLB (inst and data) hits
system.cpu.itb.misses                               0                       # Total TLB (inst and data) misses
system.cpu.itb.accesses                             0                       # Total TLB (inst and data) accesses
system.cpu.itb.stage2_mmu.stage2_tlb.instHits            0                       # ITB inst hits
system.cpu.itb.stage2_mmu.stage2_tlb.instMisses            0                       # ITB inst misses
system.cpu.itb.stage2_mmu.stage2_tlb.readHits            0                       # DTB read hits
system.cpu.itb.stage2_mmu.stage2_tlb.readMisses            0                       # DTB read misses
system.cpu.itb.stage2_mmu.stage2_tlb.writeHits            0                       # DTB write hits
system.cpu.itb.stage2_mmu.stage2_tlb.writeMisses            0                       # DTB write misses
system.cpu.itb.stage2_mmu.stage2_tlb.inserts            0                       # Number of times an entry is inserted into the TLB
system.cpu.itb.stage2_mmu.stage2_tlb.flushTlb            0                       # Number of times complete TLB was flushed
system.cpu.itb.stage2_mmu.stage2_tlb.flushTlbMva            0                       # Number of times TLB was flushed by MVA
system.cpu.itb.stage2_mmu.stage2_tlb.flushTlbMvaAsid            0                       # Number of times TLB was flushed by MVA & ASID
system.cpu.itb.stage2_mmu.stage2_tlb.flushTlbAsid            0                       # Number of times TLB was flushed by ASID
system.cpu.itb.stage2_mmu.stage2_tlb.flushedEntries            0                       # Number of entries that have been flushed from TLB
system.cpu.itb.stage2_mmu.stage2_tlb.alignFaults            0                       # Number of TLB faults due to alignment restrictions
system.cpu.itb.stage2_mmu.stage2_tlb.prefetchFaults            0                       # Number of TLB faults due to prefetch
system.cpu.itb.stage2_mmu.stage2_tlb.domainFaults            0                       # Number of TLB faults due to domain restrictions
system.cpu.itb.stage2_mmu.stage2_tlb.permsFaults            0                       # Number of TLB faults due to permissions restrictions
system.cpu.itb.stage2_mmu.stage2_tlb.readAccesses            0                       # DTB read accesses
system.cpu.itb.stage2_mmu.stage2_tlb.writeAccesses            0                       # DTB write accesses
system.cpu.itb.stage2_mmu.stage2_tlb.instAccesses            0                       # ITB inst accesses
system.cpu.itb.stage2_mmu.stage2_tlb.hits            0                       # Total TLB (inst and data) hits
system.cpu.itb.stage2_mmu.stage2_tlb.misses            0                       # Total TLB (inst and data) misses
system.cpu.itb.stage2_mmu.stage2_tlb.accesses            0                       # Total TLB (inst and data) accesses
system.cpu.itb.stage2_mmu.stage2_tlb.walker.walks            0                       # Table walker walks requested
system.cpu.itb.stage2_mmu.stage2_tlb.walker.requestOrigin_Requested::Data            0                       # Table walker requests started/completed, data/inst
system.cpu.itb.stage2_mmu.stage2_tlb.walker.requestOrigin_Requested::Inst            0                       # Table walker requests started/completed, data/inst
system.cpu.itb.stage2_mmu.stage2_tlb.walker.requestOrigin_Requested::total            0                       # Table walker requests started/completed, data/inst
system.cpu.itb.stage2_mmu.stage2_tlb.walker.requestOrigin_Completed::Data            0                       # Table walker requests started/completed, data/inst
system.cpu.itb.stage2_mmu.stage2_tlb.walker.requestOrigin_Completed::Inst            0                       # Table walker requests started/completed, data/inst
system.cpu.itb.stage2_mmu.stage2_tlb.walker.requestOrigin_Completed::total            0                       # Table walker requests started/completed, data/inst
system.cpu.itb.stage2_mmu.stage2_tlb.walker.requestOrigin::total            0                       # Table walker requests started/completed, data/inst
system.cpu.itb.stage2_mmu.stage2_tlb.walker.power_state.pwrStateResidencyTicks::UNDEFINED     32985000                       # Cumulative time (in ticks) in various power states
system.cpu.itb.walker.walks                         0                       # Table walker walks requested
system.cpu.itb.walker.requestOrigin_Requested::Data            0                       # Table walker requests started/completed, data/inst
system.cpu.itb.walker.requestOrigin_Requested::Inst            0                       # Table walker requests started/completed, data/inst
system.cpu.itb.walker.requestOrigin_Requested::total            0                       # Table walker requests started/completed, data/inst
system.cpu.itb.walker.requestOrigin_Completed::Data            0                       # Table walker requests started/completed, data/inst
system.cpu.itb.walker.requestOrigin_Completed::Inst            0                       # Table walker requests started/completed, data/inst
system.cpu.itb.walker.requestOrigin_Completed::total            0                       # Table walker requests started/completed, data/inst
system.cpu.itb.walker.requestOrigin::total            0                       # Table walker requests started/completed, data/inst
system.cpu.itb.walker.power_state.pwrStateResidencyTicks::UNDEFINED     32985000                       # Cumulative time (in ticks) in various power states
system.cpu.power_state.pwrStateResidencyTicks::ON     32985000                       # Cumulative time (in ticks) in various power states
system.cpu.thread_0.numInsts                     8909                       # Number of Instructions committed
system.cpu.thread_0.numOps                      10292                       # Number of Ops committed
system.cpu.thread_0.numMemRefs                      0                       # Number of Memory References
system.cpu_clk_domain.clock                       500                       # Clock period in ticks
system.cpu_voltage_domain.voltage                   1                       # Voltage in Volts
system.mem_ctrls.avgPriority_.writebacks::samples       160.00                       # Average QoS priority value for accepted requests
system.mem_ctrls.avgPriority_.cpu.inst::samples       364.00                       # Average QoS priority value for accepted requests
system.mem_ctrls.avgPriority_.cpu.data::samples       160.00                       # Average QoS priority value for accepted requests
system.mem_ctrls.priorityMinLatency      0.000000018750                       # per QoS priority minimum request to response latency (s)
system.mem_ctrls.priorityMaxLatency      0.000030580750                       # per QoS priority maximum request to response latency (s)
system.mem_ctrls.numReadWriteTurnArounds            8                       # Number of turnarounds from READ to WRITE
system.mem_ctrls.numWriteReadTurnArounds            8                       # Number of turnarounds from WRITE to READ
system.mem_ctrls.numStayReadState                1201                       # Number of times bus staying in READ state
system.mem_ctrls.numStayWriteState                122                       # Number of times bus staying in WRITE state
system.mem_ctrls.readReqs                         549                       # Number of read requests accepted
system.mem_ctrls.writeReqs                        161                       # Number of write requests accepted
system.mem_ctrls.readBursts                       549                       # Number of controller read bursts, including those serviced by the write queue
system.mem_ctrls.writeBursts                      161                       # Number of controller write bursts, including those merged in the write queue
system.mem_ctrls.servicedByWrQ                     25                       # Number of controller read bursts serviced by the write queue
system.mem_ctrls.mergedWrBursts                     1                       # Number of controller write bursts merged with an existing one
system.mem_ctrls.neitherReadNorWriteReqs            0                       # Number of requests that are neither read nor write
system.mem_ctrls.avgRdQLen                       1.16                       # Average read queue length when enqueuing
system.mem_ctrls.avgWrQLen                      16.27                       # Average write queue length when enqueuing
system.mem_ctrls.numRdRetry                         0                       # Number of times read queue was full causing retry
system.mem_ctrls.numWrRetry                         0                       # Number of times write queue was full causing retry
system.mem_ctrls.readPktSize::0                     0                       # Read request sizes (log2)
system.mem_ctrls.readPktSize::1                     0                       # Read request sizes (log2)
system.mem_ctrls.readPktSize::2                     0                       # Read request sizes (log2)
system.mem_ctrls.readPktSize::3                     0                       # Read request sizes (log2)
system.mem_ctrls.readPktSize::4                     0                       # Read request sizes (log2)
system.mem_ctrls.readPktSize::5                     0                       # Read request sizes (log2)
system.mem_ctrls.readPktSize::6                   549                       # Read request sizes (log2)
system.mem_ctrls.writePktSize::0                    0                       # Write request sizes (log2)
system.mem_ctrls.writePktSize::1                    0                       # Write request sizes (log2)
system.mem_ctrls.writePktSize::2                    0                       # Write request sizes (log2)
system.mem_ctrls.writePktSize::3                    0                       # Write request sizes (log2)
system.mem_ctrls.writePktSize::4                    0                       # Write request sizes (log2)
system.mem_ctrls.writePktSize::5                    0                       # Write request sizes (log2)
system.mem_ctrls.writePktSize::6                  161                       # Write request sizes (log2)
system.mem_ctrls.rdQLenPdf::0                     442                       # What read queue length does an incoming req see
system.mem_ctrls.rdQLenPdf::1                      74                       # What read queue length does an incoming req see
system.mem_ctrls.rdQLenPdf::2                       8                       # What read queue length does an incoming req see
system.mem_ctrls.rdQLenPdf::3                       0                       # What read queue length does an incoming req see
system.mem_ctrls.rdQLenPdf::4                       0                       # What read queue length does an incoming req see
system.mem_ctrls.rdQLenPdf::5                       0                       # What read queue length does an incoming req see
system.mem_ctrls.rdQLenPdf::6                       0                       # What read queue length does an incoming req see
system.mem_ctrls.rdQLenPdf::7                       0                       # What read queue length does an incoming req see
system.mem_ctrls.rdQLenPdf::8                       0                       # What read queue length does an incoming req see
system.mem_ctrls.rdQLenPdf::9                       0                       # What read queue length does an incoming req see
system.mem_ctrls.rdQLenPdf::10                      0                       # What read queue length does an incoming req see
system.mem_ctrls.rdQLenPdf::11                      0                       # What read queue length does an incoming req see
system.mem_ctrls.rdQLenPdf::12                      0                       # What read queue length does an incoming req see
system.mem_ctrls.rdQLenPdf::13                      0                       # What read queue length does an incoming req see
system.mem_ctrls.rdQLenPdf::14                      0                       # What read queue length does an incoming req see
system.mem_ctrls.rdQLenPdf::15                      0                       # What read queue length does an incoming req see
system.mem_ctrls.rdQLenPdf::16                      0                       # What read queue length does an incoming req see
system.mem_ctrls.rdQLenPdf::17                      0                       # What read queue length does an incoming req see
system.mem_ctrls.rdQLenPdf::18                      0                       # What read queue length does an incoming req see
system.mem_ctrls.rdQLenPdf::19                      0                       # What read queue length does an incoming req see
system.mem_ctrls.rdQLenPdf::20                      0                       # What read queue length does an incoming req see
system.mem_ctrls.rdQLenPdf::21                      0                       # What read queue length does an incoming req see
system.mem_ctrls.rdQLenPdf::22                      0                       # What read queue length does an incoming req see
system.mem_ctrls.rdQLenPdf::23                      0                       # What read queue length does an incoming req see
system.mem_ctrls.rdQLenPdf::24                      0                       # What read queue length does an incoming req see
system.mem_ctrls.rdQLenPdf::25                      0                       # What read queue length does an incoming req see
system.mem_ctrls.rdQLenPdf::26                      0                       # What read queue length does an incoming req see
system.mem_ctrls.rdQLenPdf::27                      0                       # What read queue length does an incoming req see
system.mem_ctrls.rdQLenPdf::28                      0                       # What read queue length does an incoming req see
system.mem_ctrls.rdQLenPdf::29                      0                       # What read queue length does an incoming req see
system.mem_ctrls.rdQLenPdf::30                      0                       # What read queue length does an incoming req see
system.mem_ctrls.rdQLenPdf::31                      0                       # What read queue length does an incoming req see
system.mem_ctrls.wrQLenPdf::0                       1                       # What write queue length does an incoming req see
system.mem_ctrls.wrQLenPdf::1                       1                       # What write queue length does an incoming req see
system.mem_ctrls.wrQLenPdf::2                       1                       # What write queue length does an incoming req see
system.mem_ctrls.wrQLenPdf::3                       1                       # What write queue length does an incoming req see
system.mem_ctrls.wrQLenPdf::4                       1                       # What write queue length does an incoming req see
system.mem_ctrls.wrQLenPdf::5                       1                       # What write queue length does an incoming req see
system.mem_ctrls.wrQLenPdf::6                       1                       # What write queue length does an incoming req see
system.mem_ctrls.wrQLenPdf::7                       1                       # What write queue length does an incoming req see
system.mem_ctrls.wrQLenPdf::8                       1                       # What write queue length does an incoming req see
system.mem_ctrls.wrQLenPdf::9                       1                       # What write queue length does an incoming req see
system.mem_ctrls.wrQLenPdf::10                      1                       # What write queue length does an incoming req see
system.mem_ctrls.wrQLenPdf::11                      1                       # What write queue length does an incoming req see
system.mem_ctrls.wrQLenPdf::12                      1                       # What write queue length does an incoming req see
system.mem_ctrls.wrQLenPdf::13                      1                       # What write queue length does an incoming req see
system.mem_ctrls.wrQLenPdf::14                      1                       # What write queue length does an incoming req see
system.mem_ctrls.wrQLenPdf::15                      1                       # What write queue length does an incoming req see
system.mem_ctrls.wrQLenPdf::16                      1                       # What write queue length does an incoming req see
system.mem_ctrls.wrQLenPdf::17                      9                       # What write queue length does an incoming req see
system.mem_ctrls.wrQLenPdf::18                     10                       # What write queue length does an incoming req see
system.mem_ctrls.wrQLenPdf::19                      9                       # What write queue length does an incoming req see
system.mem_ctrls.wrQLenPdf::20                      9                       # What write queue length does an incoming req see
system.mem_ctrls.wrQLenPdf::21                      9                       # What write queue length does an incoming req see
system.mem_ctrls.wrQLenPdf::22                     10                       # What write queue length does an incoming req see
system.mem_ctrls.wrQLenPdf::23                      9                       # What write queue length does an incoming req see
system.mem_ctrls.wrQLenPdf::24                      9                       # What write queue length does an incoming req see
system.mem_ctrls.wrQLenPdf::25                      9                       # What write queue length does an incoming req see
system.mem_ctrls.wrQLenPdf::26                      9                       # What write queue length does an incoming req see
system.mem_ctrls.wrQLenPdf::27                      9                       # What write queue length does an incoming req see
system.mem_ctrls.wrQLenPdf::28                      9                       # What write queue length does an incoming req see
system.mem_ctrls.wrQLenPdf::29                      9                       # What write queue length does an incoming req see
system.mem_ctrls.wrQLenPdf::30                      8                       # What write queue length does an incoming req see
system.mem_ctrls.wrQLenPdf::31                      8                       # What write queue length does an incoming req see
system.mem_ctrls.wrQLenPdf::32                      8                       # What write queue length does an incoming req see
system.mem_ctrls.wrQLenPdf::33                      0                       # What write queue length does an incoming req see
system.mem_ctrls.wrQLenPdf::34                      0                       # What write queue length does an incoming req see
system.mem_ctrls.wrQLenPdf::35                      0                       # What write queue length does an incoming req see
system.mem_ctrls.wrQLenPdf::36                      0                       # What write queue length does an incoming req see
system.mem_ctrls.wrQLenPdf::37                      0                       # What write queue length does an incoming req see
system.mem_ctrls.wrQLenPdf::38                      0                       # What write queue length does an incoming req see
system.mem_ctrls.wrQLenPdf::39                      0                       # What write queue length does an incoming req see
system.mem_ctrls.wrQLenPdf::40                      0                       # What write queue length does an incoming req see
system.mem_ctrls.wrQLenPdf::41                      0                       # What write queue length does an incoming req see
system.mem_ctrls.wrQLenPdf::42                      0                       # What write queue length does an incoming req see
system.mem_ctrls.wrQLenPdf::43                      0                       # What write queue length does an incoming req see
system.mem_ctrls.wrQLenPdf::44                      0                       # What write queue length does an incoming req see
system.mem_ctrls.wrQLenPdf::45                      0                       # What write queue length does an incoming req see
system.mem_ctrls.wrQLenPdf::46                      0                       # What write queue length does an incoming req see
system.mem_ctrls.wrQLenPdf::47                      0                       # What write queue length does an incoming req see
system.mem_ctrls.wrQLenPdf::48                      0                       # What write queue length does an incoming req see
system.mem_ctrls.wrQLenPdf::49                      0                       # What write queue length does an incoming req see
system.mem_ctrls.wrQLenPdf::50                      0                       # What write queue length does an incoming req see
system.mem_ctrls.wrQLenPdf::51                      0                       # What write queue length does an incoming req see
system.mem_ctrls.wrQLenPdf::52                      0                       # What write queue length does an incoming req see
system.mem_ctrls.wrQLenPdf::53                      0                       # What write queue length does an incoming req see
system.mem_ctrls.wrQLenPdf::54                      0                       # What write queue length does an incoming req see
system.mem_ctrls.wrQLenPdf::55                      0                       # What write queue length does an incoming req see
system.mem_ctrls.wrQLenPdf::56                      0                       # What write queue length does an incoming req see
system.mem_ctrls.wrQLenPdf::57                      0                       # What write queue length does an incoming req see
system.mem_ctrls.wrQLenPdf::58                      0                       # What write queue length does an incoming req see
system.mem_ctrls.wrQLenPdf::59                      0                       # What write queue length does an incoming req see
system.mem_ctrls.wrQLenPdf::60                      0                       # What write queue length does an incoming req see
system.mem_ctrls.wrQLenPdf::61                      0                       # What write queue length does an incoming req see
system.mem_ctrls.wrQLenPdf::62                      0                       # What write queue length does an incoming req see
system.mem_ctrls.wrQLenPdf::63                      0                       # What write queue length does an incoming req see
system.mem_ctrls.rdPerTurnAround::samples            8                       # Reads before turning the bus around for writes
system.mem_ctrls.rdPerTurnAround::mean      62.875000                       # Reads before turning the bus around for writes
system.mem_ctrls.rdPerTurnAround::gmean     34.638310                       # Reads before turning the bus around for writes
system.mem_ctrls.rdPerTurnAround::stdev    105.609033                       # Reads before turning the bus around for writes
system.mem_ctrls.rdPerTurnAround::16-31             6     75.00%     75.00% # Reads before turning the bus around for writes
system.mem_ctrls.rdPerTurnAround::32-47             1     12.50%     87.50% # Reads before turning the bus around for writes
system.mem_ctrls.rdPerTurnAround::320-335            1     12.50%    100.00% # Reads before turning the bus around for writes
system.mem_ctrls.rdPerTurnAround::total             8                       # Reads before turning the bus around for writes
system.mem_ctrls.wrPerTurnAround::samples            8                       # Writes before turning the bus around for reads
system.mem_ctrls.wrPerTurnAround::mean      16.250000                       # Writes before turning the bus around for reads
system.mem_ctrls.wrPerTurnAround::gmean     16.237309                       # Writes before turning the bus around for reads
system.mem_ctrls.wrPerTurnAround::stdev      0.707107                       # Writes before turning the bus around for reads
system.mem_ctrls.wrPerTurnAround::16                7     87.50%     87.50% # Writes before turning the bus around for reads
system.mem_ctrls.wrPerTurnAround::18                1     12.50%    100.00% # Writes before turning the bus around for reads
system.mem_ctrls.wrPerTurnAround::total             8                       # Writes before turning the bus around for reads
system.mem_ctrls.bytesReadWrQ                    1600                       # Total number of bytes read from write queue
system.mem_ctrls.bytesReadSys                   35136                       # Total read bytes from the system interface side
system.mem_ctrls.bytesWrittenSys                10304                       # Total written bytes from the system interface side
system.mem_ctrls.avgRdBWSys                   1065.21                       # Average system read bandwidth in MiByte/s
system.mem_ctrls.avgWrBWSys                    312.38                       # Average system write bandwidth in MiByte/s
system.mem_ctrls.totGap                      32976500                       # Total gap between requests
system.mem_ctrls.avgGap                      46445.77                       # Average gap between requests
system.mem_ctrls.requestorReadBytes::.cpu.inst        23296                       # Per-requestor bytes read from memory
system.mem_ctrls.requestorReadBytes::.cpu.data        10240                       # Per-requestor bytes read from memory
system.mem_ctrls.requestorWriteBytes::.writebacks         8320                       # Per-requestor bytes write to memory
system.mem_ctrls.requestorReadRate::.cpu.inst 706260421.403668403625                       # Per-requestor bytes read from memory rate (Bytes/sec)
system.mem_ctrls.requestorReadRate::.cpu.data 310444141.276337742805                       # Per-requestor bytes read from memory rate (Bytes/sec)
system.mem_ctrls.requestorWriteRate::.writebacks 252235864.787024438381                       # Per-requestor bytes write to memory rate (Bytes/sec)
system.mem_ctrls.requestorReadAccesses::.cpu.inst          388                       # Per-requestor read serviced memory accesses
system.mem_ctrls.requestorReadAccesses::.cpu.data          161                       # Per-requestor read serviced memory accesses
system.mem_ctrls.requestorWriteAccesses::.writebacks          161                       # Per-requestor write serviced memory accesses
system.mem_ctrls.requestorReadTotalLat::.cpu.inst      9122750                       # Per-requestor read total memory access latency
system.mem_ctrls.requestorReadTotalLat::.cpu.data      5240250                       # Per-requestor read total memory access latency
system.mem_ctrls.requestorWriteTotalLat::.writebacks    458262750                       # Per-requestor write total memory access latency
system.mem_ctrls.requestorReadAvgLat::.cpu.inst     23512.24                       # Per-requestor read average memory access latency
system.mem_ctrls.requestorReadAvgLat::.cpu.data     32548.14                       # Per-requestor read average memory access latency
system.mem_ctrls.requestorWriteAvgLat::.writebacks   2846352.48                       # Per-requestor write average memory access latency
system.mem_ctrls.dram.bytes_read::.cpu.inst        24832                       # Number of bytes read from this memory
system.mem_ctrls.dram.bytes_read::.cpu.data        10304                       # Number of bytes read from this memory
system.mem_ctrls.dram.bytes_read::total         35136                       # Number of bytes read from this memory
system.mem_ctrls.dram.bytes_inst_read::.cpu.inst        24832                       # Number of instructions bytes read from this memory
system.mem_ctrls.dram.bytes_inst_read::total        24832                       # Number of instructions bytes read from this memory
system.mem_ctrls.dram.bytes_written::.writebacks           64                       # Number of bytes written to this memory
system.mem_ctrls.dram.bytes_written::total           64                       # Number of bytes written to this memory
system.mem_ctrls.dram.num_reads::.cpu.inst          388                       # Number of read requests responded to by this memory
system.mem_ctrls.dram.num_reads::.cpu.data          161                       # Number of read requests responded to by this memory
system.mem_ctrls.dram.num_reads::total            549                       # Number of read requests responded to by this memory
system.mem_ctrls.dram.num_writes::.writebacks            1                       # Number of write requests responded to by this memory
system.mem_ctrls.dram.num_writes::total             1                       # Number of write requests responded to by this memory
system.mem_ctrls.dram.bw_read::.cpu.inst    752827043                       # Total read bandwidth from this memory (bytes/s)
system.mem_ctrls.dram.bw_read::.cpu.data    312384417                       # Total read bandwidth from this memory (bytes/s)
system.mem_ctrls.dram.bw_read::total       1065211460                       # Total read bandwidth from this memory (bytes/s)
system.mem_ctrls.dram.bw_inst_read::.cpu.inst    752827043                       # Instruction read bandwidth from this memory (bytes/s)
system.mem_ctrls.dram.bw_inst_read::total    752827043                       # Instruction read bandwidth from this memory (bytes/s)
system.mem_ctrls.dram.bw_write::.writebacks      1940276                       # Write bandwidth from this memory (bytes/s)
system.mem_ctrls.dram.bw_write::total         1940276                       # Write bandwidth from this memory (bytes/s)
system.mem_ctrls.dram.bw_total::.writebacks      1940276                       # Total bandwidth to/from this memory (bytes/s)
system.mem_ctrls.dram.bw_total::.cpu.inst    752827043                       # Total bandwidth to/from this memory (bytes/s)
system.mem_ctrls.dram.bw_total::.cpu.data    312384417                       # Total bandwidth to/from this memory (bytes/s)
system.mem_ctrls.dram.bw_total::total      1067151736                       # Total bandwidth to/from this memory (bytes/s)
system.mem_ctrls.dram.readBursts                  524                       # Number of DRAM read bursts
system.mem_ctrls.dram.writeBursts                 130                       # Number of DRAM write bursts
system.mem_ctrls.dram.perBankRdBursts::0           46                       # Per bank write bursts
system.mem_ctrls.dram.perBankRdBursts::1            2                       # Per bank write bursts
system.mem_ctrls.dram.perBankRdBursts::2           33                       # Per bank write bursts
system.mem_ctrls.dram.perBankRdBursts::3           33                       # Per bank write bursts
system.mem_ctrls.dram.perBankRdBursts::4           52                       # Per bank write bursts
system.mem_ctrls.dram.perBankRdBursts::5           44                       # Per bank write bursts
system.mem_ctrls.dram.perBankRdBursts::6           64                       # Per bank write bursts
system.mem_ctrls.dram.perBankRdBursts::7           23                       # Per bank write bursts
system.mem_ctrls.dram.perBankRdBursts::8           19                       # Per bank write bursts
system.mem_ctrls.dram.perBankRdBursts::9          119                       # Per bank write bursts
system.mem_ctrls.dram.perBankRdBursts::10           30                       # Per bank write bursts
system.mem_ctrls.dram.perBankRdBursts::11           24                       # Per bank write bursts
system.mem_ctrls.dram.perBankRdBursts::12           17                       # Per bank write bursts
system.mem_ctrls.dram.perBankRdBursts::13           10                       # Per bank write bursts
system.mem_ctrls.dram.perBankRdBursts::14            8                       # Per bank write bursts
system.mem_ctrls.dram.perBankRdBursts::15            0                       # Per bank write bursts
system.mem_ctrls.dram.perBankWrBursts::0           15                       # Per bank write bursts
system.mem_ctrls.dram.perBankWrBursts::1            0                       # Per bank write bursts
system.mem_ctrls.dram.perBankWrBursts::2            6                       # Per bank write bursts
system.mem_ctrls.dram.perBankWrBursts::3           16                       # Per bank write bursts
system.mem_ctrls.dram.perBankWrBursts::4            4                       # Per bank write bursts
system.mem_ctrls.dram.perBankWrBursts::5           12                       # Per bank write bursts
system.mem_ctrls.dram.perBankWrBursts::6           18                       # Per bank write bursts
system.mem_ctrls.dram.perBankWrBursts::7           18                       # Per bank write bursts
system.mem_ctrls.dram.perBankWrBursts::8            8                       # Per bank write bursts
system.mem_ctrls.dram.perBankWrBursts::9           27                       # Per bank write bursts
system.mem_ctrls.dram.perBankWrBursts::10            0                       # Per bank write bursts
system.mem_ctrls.dram.perBankWrBursts::11            3                       # Per bank write bursts
system.mem_ctrls.dram.perBankWrBursts::12            2                       # Per bank write bursts
system.mem_ctrls.dram.perBankWrBursts::13            0                       # Per bank write bursts
system.mem_ctrls.dram.perBankWrBursts::14            1                       # Per bank write bursts
system.mem_ctrls.dram.perBankWrBursts::15            0                       # Per bank write bursts
system.mem_ctrls.dram.totQLat                 4538000                       # Total ticks spent queuing
system.mem_ctrls.dram.totBusLat               2620000                       # Total ticks spent in databus transfers
system.mem_ctrls.dram.totMemAccLat           14363000                       # Total ticks spent from burst creation until serviced by the DRAM
system.mem_ctrls.dram.avgQLat                 8660.31                       # Average queueing delay per DRAM burst
system.mem_ctrls.dram.avgBusLat               5000.00                       # Average bus latency per DRAM burst
system.mem_ctrls.dram.avgMemAccLat           27410.31                       # Average memory access latency per DRAM burst
system.mem_ctrls.dram.readRowHits                 421                       # Number of row buffer hits during reads
system.mem_ctrls.dram.writeRowHits                108                       # Number of row buffer hits during writes
system.mem_ctrls.dram.readRowHitRate            80.34                       # Row buffer hit rate for reads
system.mem_ctrls.dram.writeRowHitRate           83.08                       # Row buffer hit rate for writes
system.mem_ctrls.dram.bytesPerActivate::samples          119                       # Bytes accessed per row activation
system.mem_ctrls.dram.bytesPerActivate::mean   337.747899                       # Bytes accessed per row activation
system.mem_ctrls.dram.bytesPerActivate::gmean   215.360682                       # Bytes accessed per row activation
system.mem_ctrls.dram.bytesPerActivate::stdev   327.709106                       # Bytes accessed per row activation
system.mem_ctrls.dram.bytesPerActivate::0-127           30     25.21%     25.21% # Bytes accessed per row activation
system.mem_ctrls.dram.bytesPerActivate::128-255           33     27.73%     52.94% # Bytes accessed per row activation
system.mem_ctrls.dram.bytesPerActivate::256-383           22     18.49%     71.43% # Bytes accessed per row activation
system.mem_ctrls.dram.bytesPerActivate::384-511            7      5.88%     77.31% # Bytes accessed per row activation
system.mem_ctrls.dram.bytesPerActivate::512-639            4      3.36%     80.67% # Bytes accessed per row activation
system.mem_ctrls.dram.bytesPerActivate::640-767            3      2.52%     83.19% # Bytes accessed per row activation
system.mem_ctrls.dram.bytesPerActivate::768-895            2      1.68%     84.87% # Bytes accessed per row activation
system.mem_ctrls.dram.bytesPerActivate::896-1023            3      2.52%     87.39% # Bytes accessed per row activation
system.mem_ctrls.dram.bytesPerActivate::1024-1151           15     12.61%    100.00% # Bytes accessed per row activation
system.mem_ctrls.dram.bytesPerActivate::total          119                       # Bytes accessed per row activation
system.mem_ctrls.dram.bytesRead                 33536                       # Total number of bytes read from DRAM
system.mem_ctrls.dram.bytesWritten               8320                       # Total number of bytes written to DRAM
system.mem_ctrls.dram.avgRdBW             1016.704563                       # Average DRAM read bandwidth in MiBytes/s
system.mem_ctrls.dram.avgWrBW              252.235865                       # Average DRAM write bandwidth in MiBytes/s
system.mem_ctrls.dram.peakBW                 12800.00                       # Theoretical peak bandwidth in MiByte/s
system.mem_ctrls.dram.busUtil                    9.91                       # Data bus utilization in percentage
system.mem_ctrls.dram.busUtilRead                7.94                       # Data bus utilization in percentage for reads
system.mem_ctrls.dram.busUtilWrite               1.97                       # Data bus utilization in percentage for writes
system.mem_ctrls.dram.pageHitRate               80.89                       # Row buffer hit rate, read and write combined
system.mem_ctrls.dram.power_state.pwrStateResidencyTicks::UNDEFINED     32985000                       # Cumulative time (in ticks) in various power states
system.mem_ctrls.dram.rank0.actEnergy          435540                       # Energy for activate commands per rank (pJ)
system.mem_ctrls.dram.rank0.preEnergy          216315                       # Energy for precharge commands per rank (pJ)
system.mem_ctrls.dram.rank0.readEnergy        2120580                       # Energy for read commands per rank (pJ)
system.mem_ctrls.dram.rank0.writeEnergy        464580                       # Energy for write commands per rank (pJ)
system.mem_ctrls.dram.rank0.refreshEnergy 2458560.000000                       # Energy for refresh commands per rank (pJ)
system.mem_ctrls.dram.rank0.actBackEnergy     14748750                       # Energy for active background per rank (pJ)
system.mem_ctrls.dram.rank0.preBackEnergy       246240                       # Energy for precharge background per rank (pJ)
system.mem_ctrls.dram.rank0.actPowerDownEnergy            0                       # Energy for active power-down per rank (pJ)
system.mem_ctrls.dram.rank0.prePowerDownEnergy            0                       # Energy for precharge power-down per rank (pJ)
system.mem_ctrls.dram.rank0.selfRefreshEnergy            0                       # Energy for self refresh per rank (pJ)
system.mem_ctrls.dram.rank0.totalEnergy      20690565                       # Total energy per rank (pJ)
system.mem_ctrls.dram.rank0.averagePower   627.271942                       # Core power per rank (mW)
system.mem_ctrls.dram.rank0.totalIdleTime            0                       # Total Idle time Per DRAM Rank
system.mem_ctrls.dram.rank0.pwrStateTime::IDLE       528750                       # Time in different power states
system.mem_ctrls.dram.rank0.pwrStateTime::REF      1040000                       # Time in different power states
system.mem_ctrls.dram.rank0.pwrStateTime::SREF            0                       # Time in different power states
system.mem_ctrls.dram.rank0.pwrStateTime::PRE_PDN            0                       # Time in different power states
system.mem_ctrls.dram.rank0.pwrStateTime::ACT     31416250                       # Time in different power states
system.mem_ctrls.dram.rank0.pwrStateTime::ACT_PDN            0                       # Time in different power states
system.mem_ctrls.dram.rank1.actEnergy          456960                       # Energy for activate commands per rank (pJ)
system.mem_ctrls.dram.rank1.preEnergy          235290                       # Energy for precharge commands per rank (pJ)
system.mem_ctrls.dram.rank1.readEnergy        1620780                       # Energy for read commands per rank (pJ)
system.mem_ctrls.dram.rank1.writeEnergy        214020                       # Energy for write commands per rank (pJ)
system.mem_ctrls.dram.rank1.refreshEnergy 2458560.000000                       # Energy for refresh commands per rank (pJ)
system.mem_ctrls.dram.rank1.actBackEnergy     14923740                       # Energy for active background per rank (pJ)
system.mem_ctrls.dram.rank1.preBackEnergy        98880                       # Energy for precharge background per rank (pJ)
system.mem_ctrls.dram.rank1.actPowerDownEnergy            0                       # Energy for active power-down per rank (pJ)
system.mem_ctrls.dram.rank1.prePowerDownEnergy            0                       # Energy for precharge power-down per rank (pJ)
system.mem_ctrls.dram.rank1.selfRefreshEnergy            0                       # Energy for self refresh per rank (pJ)
system.mem_ctrls.dram.rank1.totalEnergy      20008230                       # Total energy per rank (pJ)
system.mem_ctrls.dram.rank1.averagePower   606.585721                       # Core power per rank (mW)
system.mem_ctrls.dram.rank1.totalIdleTime            0                       # Total Idle time Per DRAM Rank
system.mem_ctrls.dram.rank1.pwrStateTime::IDLE       146250                       # Time in different power states
system.mem_ctrls.dram.rank1.pwrStateTime::REF      1040000                       # Time in different power states
system.mem_ctrls.dram.rank1.pwrStateTime::SREF            0                       # Time in different power states
system.mem_ctrls.dram.rank1.pwrStateTime::PRE_PDN            0                       # Time in different power states
system.mem_ctrls.dram.rank1.pwrStateTime::ACT     31798750                       # Time in different power states
system.mem_ctrls.dram.rank1.pwrStateTime::ACT_PDN            0                       # Time in different power states
system.mem_ctrls.power_state.pwrStateResidencyTicks::UNDEFINED     32985000                       # Cumulative time (in ticks) in various power states
system.membus.trans_dist::ReadResp                486                       # Transaction distribution
system.membus.trans_dist::WritebackDirty            1                       # Transaction distribution
system.membus.trans_dist::WritebackClean          165                       # Transaction distribution
system.membus.trans_dist::CleanEvict                1                       # Transaction distribution
system.membus.trans_dist::ReadExReq                63                       # Transaction distribution
system.membus.trans_dist::ReadExResp               63                       # Transaction distribution
system.membus.trans_dist::ReadCleanReq            388                       # Transaction distribution
system.membus.trans_dist::ReadSharedReq            98                       # Transaction distribution
system.membus.pkt_count_system.cpu.icache.mem_side_port::system.mem_ctrls.port          941                       # Packet count per connected requestor and responder (bytes)
system.membus.pkt_count_system.cpu.dcache.mem_side_port::system.mem_ctrls.port          324                       # Packet count per connected requestor and responder (bytes)
system.membus.pkt_count::total                   1265                       # Packet count per connected requestor and responder (bytes)
system.membus.pkt_size_system.cpu.icache.mem_side_port::system.mem_ctrls.port        35392                       # Cumulative packet size per connected requestor and responder (bytes)
system.membus.pkt_size_system.cpu.dcache.mem_side_port::system.mem_ctrls.port        10368                       # Cumulative packet size per connected requestor and responder (bytes)
system.membus.pkt_size::total                   45760                       # Cumulative packet size per connected requestor and responder (bytes)
system.membus.snoops                                0                       # Total snoops (count)
system.membus.snoopTraffic                          0                       # Total snoop traffic (bytes)
system.membus.snoop_fanout::samples               549                       # Request fanout histogram
system.membus.snoop_fanout::mean             0.040073                       # Request fanout histogram
system.membus.snoop_fanout::stdev            0.196309                       # Request fanout histogram
system.membus.snoop_fanout::underflows              0      0.00%      0.00% # Request fanout histogram
system.membus.snoop_fanout::0                     527     95.99%     95.99% # Request fanout histogram
system.membus.snoop_fanout::1                      22      4.01%    100.00% # Request fanout histogram
system.membus.snoop_fanout::2                       0      0.00%    100.00% # Request fanout histogram
system.membus.snoop_fanout::overflows               0      0.00%    100.00% # Request fanout histogram
system.membus.snoop_fanout::min_value               0                       # Request fanout histogram
system.membus.snoop_fanout::max_value               1                       # Request fanout histogram
system.membus.snoop_fanout::total                 549                       # Request fanout histogram
system.membus.power_state.pwrStateResidencyTicks::UNDEFINED     32985000                       # Cumulative time (in ticks) in various power states
system.membus.reqLayer0.occupancy             1460000                       # Layer occupancy (ticks)
system.membus.reqLayer0.utilization               4.4                       # Layer utilization (%)
system.membus.respLayer1.occupancy            2052250                       # Layer occupancy (ticks)
system.membus.respLayer1.utilization              6.2                       # Layer utilization (%)
system.membus.respLayer2.occupancy             865000                       # Layer occupancy (ticks)
system.membus.respLayer2.utilization              2.6                       # Layer utilization (%)
system.voltage_domain.voltage                       1                       # Voltage in Volts

---------- End Simulation Statistics   ----------
